<?xml version="1.0" encoding="UTF-8"?>

<!-- generated on Fri Jun 26 00:57:29 2020 by Eclipse SUMO netconvert Version 1.6.0
<configuration xmlns:xsi="http://www.w3.org/2001/XMLSchema-instance" xsi:noNamespaceSchemaLocation="http://sumo.dlr.de/xsd/netconvertConfiguration.xsd">

    <input>
        <osm-files value="martini.osm.xml"/>
    </input>

    <output>
        <output-file value="martini.net.xml"/>
    </output>

    <projection>
        <proj.utm value="true"/>
    </projection>

    <report>
        <aggregate-warnings value="5"/>
    </report>

</configuration>
-->

<net version="1.6" junctionCornerDetail="5" limitTurnSpeed="5.50" xmlns:xsi="http://www.w3.org/2001/XMLSchema-instance" xsi:noNamespaceSchemaLocation="http://sumo.dlr.de/xsd/net_file.xsd">

    <location netOffset="-433608.38,-5791037.30" convBoundary="0.00,0.00,1341.84,1077.18" origBoundary="8.027013,52.265864,8.051029,52.275475" projParameter="+proj=utm +zone=32 +ellps=WGS84 +datum=WGS84 +units=m +no_defs"/>

    <type id="highway.bridleway" priority="1" numLanes="1" speed="2.78" allow="pedestrian" oneway="1" width="2.00"/>
    <type id="highway.bus_guideway" priority="1" numLanes="1" speed="27.78" allow="bus" oneway="1"/>
    <type id="highway.cycleway" priority="1" numLanes="1" speed="8.33" allow="bicycle" oneway="0" width="1.00"/>
    <type id="highway.footway" priority="1" numLanes="1" speed="2.78" allow="pedestrian" oneway="1" width="2.00"/>
    <type id="highway.ford" priority="1" numLanes="1" speed="2.78" allow="army" oneway="0"/>
    <type id="highway.living_street" priority="2" numLanes="1" speed="2.78" disallow="tram rail_urban rail rail_electric rail_fast ship" oneway="0"/>
    <type id="highway.motorway" priority="14" numLanes="2" speed="39.44" allow="private emergency authority army vip passenger hov taxi bus coach delivery truck trailer motorcycle evehicle custom1 custom2" oneway="1"/>
    <type id="highway.motorway_link" priority="9" numLanes="1" speed="22.22" allow="private emergency authority army vip passenger hov taxi bus coach delivery truck trailer motorcycle evehicle custom1 custom2" oneway="1"/>
    <type id="highway.path" priority="1" numLanes="1" speed="2.78" allow="pedestrian bicycle" oneway="1" width="2.00"/>
    <type id="highway.pedestrian" priority="1" numLanes="1" speed="2.78" allow="pedestrian" oneway="1" width="2.00"/>
    <type id="highway.primary" priority="12" numLanes="2" speed="27.78" disallow="tram rail_urban rail rail_electric rail_fast ship" oneway="0"/>
    <type id="highway.primary_link" priority="7" numLanes="1" speed="22.22" disallow="tram rail_urban rail rail_electric rail_fast ship" oneway="0"/>
    <type id="highway.raceway" priority="15" numLanes="2" speed="83.33" allow="vip" oneway="0"/>
    <type id="highway.residential" priority="3" numLanes="1" speed="13.89" disallow="tram rail_urban rail rail_electric rail_fast ship" oneway="0"/>
    <type id="highway.secondary" priority="11" numLanes="1" speed="27.78" disallow="tram rail_urban rail rail_electric rail_fast ship" oneway="0"/>
    <type id="highway.secondary_link" priority="6" numLanes="1" speed="22.22" disallow="tram rail_urban rail rail_electric rail_fast ship" oneway="0"/>
    <type id="highway.service" priority="1" numLanes="1" speed="5.56" allow="pedestrian delivery bicycle" oneway="0"/>
    <type id="highway.stairs" priority="1" numLanes="1" speed="1.39" allow="pedestrian" oneway="1" width="2.00"/>
    <type id="highway.step" priority="1" numLanes="1" speed="1.39" allow="pedestrian" oneway="1" width="2.00"/>
    <type id="highway.steps" priority="1" numLanes="1" speed="1.39" allow="pedestrian" oneway="1" width="2.00"/>
    <type id="highway.tertiary" priority="10" numLanes="1" speed="22.22" disallow="tram rail_urban rail rail_electric rail_fast ship" oneway="0"/>
    <type id="highway.tertiary_link" priority="5" numLanes="1" speed="22.22" disallow="tram rail_urban rail rail_electric rail_fast ship" oneway="0"/>
    <type id="highway.track" priority="1" numLanes="1" speed="5.56" disallow="tram rail_urban rail rail_electric rail_fast ship" oneway="0"/>
    <type id="highway.trunk" priority="13" numLanes="2" speed="27.78" disallow="pedestrian bicycle tram rail_urban rail rail_electric rail_fast ship" oneway="0"/>
    <type id="highway.trunk_link" priority="8" numLanes="1" speed="22.22" disallow="pedestrian bicycle tram rail_urban rail rail_electric rail_fast ship" oneway="0"/>
    <type id="highway.unclassified" priority="4" numLanes="1" speed="13.89" disallow="tram rail_urban rail rail_electric rail_fast ship" oneway="0"/>
    <type id="highway.unsurfaced" priority="1" numLanes="1" speed="8.33" disallow="tram rail_urban rail rail_electric rail_fast ship" oneway="0"/>
    <type id="railway.highspeed" priority="21" numLanes="1" speed="69.44" allow="rail_fast" oneway="1"/>
    <type id="railway.light_rail" priority="19" numLanes="1" speed="27.78" allow="rail_urban" oneway="1"/>
    <type id="railway.preserved" priority="16" numLanes="1" speed="27.78" allow="rail" oneway="1"/>
    <type id="railway.rail" priority="20" numLanes="1" speed="44.44" allow="rail" oneway="1"/>
    <type id="railway.subway" priority="18" numLanes="1" speed="27.78" allow="rail_urban" oneway="1"/>
    <type id="railway.tram" priority="17" numLanes="1" speed="13.89" allow="tram" oneway="1"/>

    <edge id=":1133645106_0" function="internal">
        <lane id=":1133645106_0_0" index="0" disallow="tram rail_urban rail rail_electric rail_fast ship" speed="3.65" length="4.67" shape="1115.12,684.84 1116.43,685.44 1116.96,686.17 1116.69,687.02 1115.63,688.00"/>
    </edge>
    <edge id=":1828608240_0" function="internal">
        <lane id=":1828608240_0_0" index="0" disallow="tram rail_urban rail rail_electric rail_fast ship" speed="8.33" length="10.94" shape="732.20,633.55 729.13,632.99 726.79,632.85 724.45,633.13 721.41,633.84"/>
    </edge>
    <edge id=":1828608240_1" function="internal">
        <lane id=":1828608240_1_0" index="0" disallow="tram rail_urban rail rail_electric rail_fast ship" speed="8.33" length="12.30" shape="732.20,633.55 729.18,632.48 726.94,630.68 725.50,628.15 724.84,624.90"/>
    </edge>
    <edge id=":1828608240_2" function="internal">
        <lane id=":1828608240_2_0" index="0" disallow="tram rail_urban rail rail_electric rail_fast ship" speed="3.65" length="4.67" shape="732.20,633.55 731.19,632.52 730.96,631.66 731.51,630.95 732.85,630.41"/>
    </edge>
    <edge id=":1828608240_3" function="internal">
        <lane id=":1828608240_3_0" index="0" disallow="tram rail_urban rail rail_electric rail_fast ship" speed="6.91" length="8.12" shape="728.03,624.67 728.47,626.83 729.41,628.51 730.87,629.71 732.85,630.41"/>
    </edge>
    <edge id=":1828608240_4" function="internal">
        <lane id=":1828608240_4_0" index="0" disallow="tram rail_urban rail rail_electric rail_fast ship" speed="8.05" length="12.46" shape="728.03,624.67 727.82,628.00 726.64,630.64 724.51,632.59 721.41,633.84"/>
    </edge>
    <edge id=":1828608240_5" function="internal">
        <lane id=":1828608240_5_0" index="0" disallow="tram rail_urban rail rail_electric rail_fast ship" speed="3.65" length="4.67" shape="728.03,624.67 727.32,625.92 726.55,626.38 725.73,626.04 724.84,624.90"/>
    </edge>
    <edge id=":1828608240_6" function="internal">
        <lane id=":1828608240_6_0" index="0" disallow="tram rail_urban rail rail_electric rail_fast ship" speed="6.55" length="7.93" shape="720.63,630.73 722.60,629.94 723.96,628.70 724.71,627.02 724.84,624.90"/>
    </edge>
    <edge id=":1828608240_7" function="internal">
        <lane id=":1828608240_7_0" index="0" disallow="tram rail_urban rail rail_electric rail_fast ship" speed="8.33" length="12.37" shape="720.63,630.73 723.89,630.02 726.72,629.73 729.56,629.86 732.85,630.41"/>
    </edge>
    <edge id=":1828608240_8" function="internal">
        <lane id=":1828608240_8_0" index="0" disallow="tram rail_urban rail rail_electric rail_fast ship" speed="3.65" length="4.67" shape="720.63,630.73 721.98,631.21 722.57,631.89 722.38,632.77 721.41,633.84"/>
    </edge>
    <edge id=":1828608252_0" function="internal">
        <lane id=":1828608252_0_0" index="0" disallow="tram rail_urban rail rail_electric rail_fast ship" speed="8.33" length="5.89" shape="764.49,654.39 762.76,654.33 761.57,654.11 760.48,653.58 759.04,652.61"/>
    </edge>
    <edge id=":1828608252_1" function="internal">
        <lane id=":1828608252_1_0" index="0" disallow="tram rail_urban rail rail_electric rail_fast ship" speed="3.65" length="2.34" shape="764.49,654.39 763.30,653.57 762.91,652.77"/>
    </edge>
    <edge id=":1828608252_4" function="internal">
        <lane id=":1828608252_4_0" index="0" disallow="tram rail_urban rail rail_electric rail_fast ship" speed="3.65" length="2.34" shape="762.91,652.77 763.32,651.97 764.53,651.19"/>
    </edge>
    <edge id=":1828608252_2" function="internal">
        <lane id=":1828608252_2_0" index="0" disallow="tram rail_urban rail rail_electric rail_fast ship" speed="8.18" length="3.92" shape="760.90,650.00 761.86,650.65 762.58,651.00 763.38,651.15 764.53,651.19"/>
    </edge>
    <edge id=":1828608252_3" function="internal">
        <lane id=":1828608252_3_0" index="0" disallow="tram rail_urban rail rail_electric rail_fast ship" speed="3.65" length="2.34" shape="760.90,650.00 761.41,651.35 761.28,652.23"/>
    </edge>
    <edge id=":1828608252_5" function="internal">
        <lane id=":1828608252_5_0" index="0" disallow="tram rail_urban rail rail_electric rail_fast ship" speed="3.65" length="2.34" shape="761.28,652.23 760.49,652.65 759.04,652.61"/>
    </edge>
    <edge id=":1828645349_0" function="internal">
        <lane id=":1828645349_0_0" index="0" disallow="tram rail_urban rail rail_electric rail_fast ship" speed="8.33" length="6.48" shape="1071.52,734.79 1070.93,732.99 1070.17,731.87 1069.42,730.75 1068.87,728.95"/>
    </edge>
    <edge id=":1828645349_1" function="internal">
        <lane id=":1828645349_1_0" index="0" allow="pedestrian delivery bicycle" speed="4.31" length="5.80" shape="1072.79,729.56 1071.58,730.88 1070.52,731.22 1069.62,730.57 1068.87,728.95"/>
    </edge>
    <edge id=":1936867443_0" function="internal">
        <lane id=":1936867443_0_0" index="0" disallow="tram rail_urban rail rail_electric rail_fast ship" speed="8.33" length="8.13" shape="711.97,677.90 710.65,675.88 709.60,674.48 708.25,673.55 706.02,672.90"/>
    </edge>
    <edge id=":1936867443_1" function="internal">
        <lane id=":1936867443_1_0" index="0" disallow="tram rail_urban rail rail_electric rail_fast ship" speed="13.89" length="8.47" shape="714.44,674.29 706.02,672.90"/>
        <lane id=":1936867443_1_1" index="1" disallow="tram rail_urban rail rail_electric rail_fast ship" speed="13.89" length="8.47" shape="714.93,671.13 706.64,669.76"/>
    </edge>
    <edge id=":1936867447_0" function="internal">
        <lane id=":1936867447_0_0" index="0" disallow="tram rail_urban rail rail_electric rail_fast ship" speed="2.78" length="4.19" shape="734.99,701.26 734.79,700.05 734.50,699.24 733.97,698.55 733.07,697.71"/>
    </edge>
    <edge id=":1936867448_0" function="internal">
        <lane id=":1936867448_0_0" index="0" disallow="tram rail_urban rail rail_electric rail_fast ship" speed="13.89" length="5.49" shape="752.75,670.96 758.15,671.83"/>
        <lane id=":1936867448_0_1" index="1" disallow="tram rail_urban rail rail_electric rail_fast ship" speed="13.89" length="5.49" shape="752.22,674.11 757.66,674.99"/>
    </edge>
    <edge id=":1973681491_0" function="internal">
        <lane id=":1973681491_0_0" index="0" allow="bicycle" speed="2.04" length="1.46" width="1.00" shape="752.40,664.11 752.40,664.56 752.27,664.81 751.99,664.85 751.57,664.68"/>
    </edge>
    <edge id=":2079173493_0" function="internal">
        <lane id=":2079173493_0_0" index="0" disallow="tram rail_urban rail rail_electric rail_fast ship" speed="3.65" length="4.67" shape="579.75,519.91 579.38,518.52 579.62,517.65 580.45,517.32 581.87,517.52"/>
    </edge>
    <edge id=":2121038982_0" function="internal">
        <lane id=":2121038982_0_0" index="0" disallow="tram rail_urban rail rail_electric rail_fast ship" speed="8.33" length="6.31" shape="758.16,651.98 753.18,648.11"/>
    </edge>
    <edge id=":2121038982_1" function="internal">
        <lane id=":2121038982_1_0" index="0" disallow="tram rail_urban rail rail_electric rail_fast ship" speed="3.65" length="2.34" shape="758.16,651.98 757.65,650.63 757.79,649.75"/>
    </edge>
    <edge id=":2121038982_6" function="internal">
        <lane id=":2121038982_6_0" index="0" disallow="tram rail_urban rail rail_electric rail_fast ship" speed="3.65" length="2.34" shape="757.79,649.75 758.58,649.33 760.02,649.37"/>
    </edge>
    <edge id=":2121038982_2" function="internal">
        <lane id=":2121038982_2_0" index="0" disallow="tram rail_urban rail rail_electric rail_fast ship" speed="8.33" length="6.12" shape="755.18,645.62 760.02,649.37"/>
    </edge>
    <edge id=":2121038982_3" function="internal">
        <lane id=":2121038982_3_0" index="0" disallow="tram rail_urban rail rail_electric rail_fast ship" speed="3.65" length="2.34" shape="755.18,645.62 755.62,646.99 755.43,647.87"/>
    </edge>
    <edge id=":2121038982_7" function="internal">
        <lane id=":2121038982_7_0" index="0" disallow="tram rail_urban rail rail_electric rail_fast ship" speed="3.65" length="2.34" shape="755.43,647.87 754.61,648.24 753.18,648.11"/>
    </edge>
    <edge id=":2121038982_4" function="internal">
        <lane id=":2121038982_4_0" index="0" allow="pedestrian delivery bicycle" speed="4.76" length="5.47" shape="752.91,652.45 754.12,651.43 754.58,650.37 754.26,649.27 753.18,648.11"/>
    </edge>
    <edge id=":2121038982_5" function="internal">
        <lane id=":2121038982_5_0" index="0" allow="pedestrian delivery bicycle" speed="6.95" length="7.88" shape="752.91,652.45 755.65,650.84 757.75,649.79 759.20,649.30 760.02,649.37"/>
    </edge>
    <edge id=":2301167481_0" function="internal">
        <lane id=":2301167481_0_0" index="0" disallow="tram rail_urban rail rail_electric rail_fast ship" speed="13.89" length="0.32" shape="22.26,555.22 22.40,555.23 22.50,555.24 22.60,555.25 22.74,555.27"/>
        <lane id=":2301167481_0_1" index="1" disallow="tram rail_urban rail rail_electric rail_fast ship" speed="13.89" length="0.32" shape="22.13,558.42 22.18,558.42 22.21,558.43 22.24,558.43 22.29,558.44"/>
    </edge>
    <edge id=":2301167488_0" function="internal">
        <lane id=":2301167488_0_0" index="0" disallow="tram rail_urban rail rail_electric rail_fast ship" speed="13.89" length="0.28" shape="295.45,597.71 295.70,597.75"/>
        <lane id=":2301167488_0_1" index="1" disallow="tram rail_urban rail rail_electric rail_fast ship" speed="13.89" length="0.28" shape="294.95,600.87 295.26,600.92"/>
    </edge>
    <edge id=":2301167490_0" function="internal">
        <lane id=":2301167490_0_0" index="0" disallow="tram rail_urban rail rail_electric rail_fast ship" speed="13.89" length="0.30" shape="317.64,600.93 317.94,600.98"/>
        <lane id=":2301167490_0_1" index="1" disallow="tram rail_urban rail rail_electric rail_fast ship" speed="13.89" length="0.30" shape="317.16,604.09 317.43,604.14"/>
    </edge>
    <edge id=":2301167497_0" function="internal">
        <lane id=":2301167497_0_0" index="0" disallow="tram rail_urban rail rail_electric rail_fast ship" speed="13.89" length="0.30" shape="537.49,635.94 537.77,635.99"/>
        <lane id=":2301167497_0_1" index="1" disallow="tram rail_urban rail rail_electric rail_fast ship" speed="13.89" length="0.30" shape="536.99,639.10 537.30,639.15"/>
    </edge>
    <edge id=":2301167504_0" function="internal">
        <lane id=":2301167504_0_0" index="0" disallow="tram rail_urban rail rail_electric rail_fast ship" speed="13.89" length="0.30" shape="560.90,639.66 561.18,639.70"/>
        <lane id=":2301167504_0_1" index="1" disallow="tram rail_urban rail rail_electric rail_fast ship" speed="13.89" length="0.30" shape="560.37,642.81 560.68,642.86"/>
    </edge>
    <edge id=":2301167512_0" function="internal">
        <lane id=":2301167512_0_0" index="0" disallow="tram rail_urban rail rail_electric rail_fast ship" speed="13.89" length="0.30" shape="559.75,649.71 559.45,649.66"/>
        <lane id=":2301167512_0_1" index="1" disallow="tram rail_urban rail rail_electric rail_fast ship" speed="13.89" length="0.30" shape="560.25,646.55 559.95,646.50"/>
    </edge>
    <edge id=":2301167517_0" function="internal">
        <lane id=":2301167517_0_0" index="0" disallow="tram rail_urban rail rail_electric rail_fast ship" speed="5.91" length="8.05" shape="705.63,658.10 705.37,660.03 706.01,661.57 707.54,662.69 709.96,663.42"/>
    </edge>
    <edge id=":2301167517_1" function="internal">
        <lane id=":2301167517_1_0" index="0" disallow="tram rail_urban rail rail_electric rail_fast ship" speed="8.33" length="10.82" shape="705.63,658.10 702.55,668.47"/>
    </edge>
    <edge id=":2301167517_2" function="internal">
        <lane id=":2301167517_2_0" index="0" disallow="tram rail_urban rail rail_electric rail_fast ship" speed="3.65" length="4.67" shape="705.63,658.10 704.50,658.98 703.61,659.11 702.98,658.48 702.60,657.09"/>
    </edge>
    <edge id=":2301167517_3" function="internal">
        <lane id=":2301167517_3_0" index="0" disallow="tram rail_urban rail rail_electric rail_fast ship" speed="7.03" length="9.38" shape="694.96,660.87 697.71,660.99 699.90,660.40 701.53,659.10 702.60,657.09"/>
    </edge>
    <edge id=":2301167517_4" function="internal">
        <lane id=":2301167517_4_0" index="0" disallow="tram rail_urban rail rail_electric rail_fast ship" speed="13.89" length="15.18" shape="694.96,660.87 709.96,663.42"/>
        <lane id=":2301167517_4_1" index="1" disallow="tram rail_urban rail rail_electric rail_fast ship" speed="13.89" length="15.18" shape="694.46,664.03 709.39,666.57"/>
    </edge>
    <edge id=":2301167517_6" function="internal">
        <lane id=":2301167517_6_0" index="0" disallow="tram rail_urban rail rail_electric rail_fast ship" speed="6.62" length="10.02" shape="694.46,664.03 698.29,664.83 700.91,665.84 702.33,667.05 702.55,668.47"/>
    </edge>
    <edge id=":2301167517_7" function="internal">
        <lane id=":2301167517_7_0" index="0" disallow="tram rail_urban rail rail_electric rail_fast ship" speed="8.33" length="11.05" shape="699.44,667.68 702.60,657.09"/>
    </edge>
    <edge id=":2301167517_8" function="internal">
        <lane id=":2301167517_8_0" index="0" disallow="tram rail_urban rail rail_electric rail_fast ship" speed="7.17" length="10.60" shape="699.44,667.68 700.33,666.57 702.28,666.01 705.30,666.01 709.39,666.57"/>
    </edge>
    <edge id=":2301167517_9" function="internal">
        <lane id=":2301167517_9_0" index="0" disallow="tram rail_urban rail rail_electric rail_fast ship" speed="3.65" length="4.67" shape="699.44,667.68 700.51,666.72 701.39,666.52 702.07,667.11 702.55,668.47"/>
    </edge>
    <edge id=":2301167522_0" function="internal">
        <lane id=":2301167522_0_0" index="0" disallow="tram rail_urban rail rail_electric rail_fast ship" speed="13.89" length="6.33" shape="756.79,680.77 750.54,679.82"/>
        <lane id=":2301167522_0_1" index="1" disallow="tram rail_urban rail rail_electric rail_fast ship" speed="13.89" length="6.33" shape="757.27,677.61 751.02,676.65"/>
    </edge>
    <edge id=":2301167525_0" function="internal">
        <lane id=":2301167525_0_0" index="0" disallow="tram rail_urban rail rail_electric rail_fast ship" speed="13.89" length="2.29" shape="907.94,696.83 908.70,696.92 909.23,696.95 909.75,697.02 910.47,697.23"/>
        <lane id=":2301167525_0_1" index="1" disallow="tram rail_urban rail rail_electric rail_fast ship" speed="13.89" length="2.29" shape="907.41,699.99 908.01,700.05 908.42,700.05 908.83,700.08 909.40,700.24"/>
    </edge>
    <edge id=":2301167526_0" function="internal">
        <lane id=":2301167526_0_0" index="0" disallow="tram rail_urban rail rail_electric rail_fast ship" speed="13.89" length="2.82" shape="909.53,706.93 908.55,707.01 907.88,706.93 907.21,706.75 906.25,706.53"/>
        <lane id=":2301167526_0_1" index="1" disallow="tram rail_urban rail rail_electric rail_fast ship" speed="13.89" length="2.82" shape="909.07,703.76 908.40,703.80 907.94,703.71 907.48,703.55 906.82,703.38"/>
    </edge>
    <edge id=":2814627907_0" function="internal">
        <lane id=":2814627907_0_0" index="0" disallow="tram rail_urban rail rail_electric rail_fast ship" speed="5.63" length="13.25" shape="974.78,540.08 977.11,537.94 980.19,538.35 982.71,540.64 983.35,544.15"/>
    </edge>
    <edge id=":2814627907_1" function="internal">
        <lane id=":2814627907_1_0" index="0" disallow="tram rail_urban rail rail_electric rail_fast ship" speed="5.98" length="15.19" shape="977.34,542.25 979.63,537.28 980.87,535.85 981.06,537.96 980.20,543.60"/>
    </edge>
    <edge id=":2815255979_0" function="internal">
        <lane id=":2815255979_0_0" index="0" allow="bicycle" speed="11.11" length="19.72" shape="986.44,546.38 984.85,549.85 983.35,553.82 981.92,558.76 980.54,565.13"/>
    </edge>
    <edge id=":2815255979_1" function="internal">
        <lane id=":2815255979_1_0" index="0" allow="bicycle" speed="2.04" length="1.46" width="1.00" shape="986.44,546.38 986.05,546.61 985.77,546.61 985.60,546.39 985.54,545.94"/>
    </edge>
    <edge id=":2815255979_2" function="internal">
        <lane id=":2815255979_2_0" index="0" allow="bicycle" speed="3.97" length="5.39" width="1.00" shape="984.22,545.51 983.94,547.45 984.07,548.17 984.60,547.67 985.54,545.94"/>
    </edge>
    <edge id=":2815255979_3" function="internal">
        <lane id=":2815255979_3_0" index="0" disallow="tram rail_urban rail rail_electric rail_fast ship" speed="13.89" length="19.96" shape="983.14,545.30 979.46,564.93"/>
        <lane id=":2815255979_3_1" index="1" disallow="tram rail_urban rail rail_electric rail_fast ship" speed="13.89" length="19.96" shape="979.99,544.72 976.32,564.34"/>
    </edge>
    <edge id=":2818554802_0" function="internal">
        <lane id=":2818554802_0_0" index="0" allow="bicycle" speed="2.04" length="1.46" width="1.00" shape="1028.73,447.80 1029.13,447.60 1029.41,447.62 1029.57,447.86 1029.59,448.31"/>
    </edge>
    <edge id=":3006388143_0" function="internal">
        <lane id=":3006388143_0_0" index="0" disallow="tram rail_urban rail rail_electric rail_fast ship" speed="13.89" length="5.16" shape="918.41,722.77 919.18,717.67"/>
        <lane id=":3006388143_0_1" index="1" disallow="tram rail_urban rail rail_electric rail_fast ship" speed="13.89" length="5.16" shape="921.58,723.25 922.34,718.14"/>
    </edge>
    <edge id=":3006388145_0" function="internal">
        <lane id=":3006388145_0_0" index="0" disallow="tram rail_urban rail rail_electric rail_fast ship" speed="13.89" length="5.57" shape="924.01,690.64 925.12,685.20"/>
        <lane id=":3006388145_0_1" index="1" disallow="tram rail_urban rail rail_electric rail_fast ship" speed="13.89" length="5.57" shape="927.14,691.30 928.26,685.82"/>
    </edge>
    <edge id=":3006388154_0" function="internal">
        <lane id=":3006388154_0_0" index="0" disallow="tram rail_urban rail rail_electric rail_fast ship" speed="13.89" length="7.19" shape="931.48,724.88 932.60,723.07 933.45,721.88 934.40,720.77 935.86,719.21"/>
    </edge>
    <edge id=":3006388162_0" function="internal">
        <lane id=":3006388162_0_0" index="0" disallow="tram rail_urban rail rail_electric rail_fast ship" speed="13.89" length="5.23" shape="956.84,689.62 956.13,694.69"/>
        <lane id=":3006388162_0_1" index="1" disallow="tram rail_urban rail rail_electric rail_fast ship" speed="13.89" length="5.23" shape="953.69,689.06 952.95,694.35"/>
    </edge>
    <edge id=":3006388199_0" function="internal">
        <lane id=":3006388199_0_0" index="0" disallow="tram rail_urban rail rail_electric rail_fast ship" speed="13.89" length="5.13" shape="952.63,722.01 951.86,727.08"/>
        <lane id=":3006388199_0_1" index="1" disallow="tram rail_urban rail rail_electric rail_fast ship" speed="13.89" length="5.13" shape="949.47,721.53 948.70,726.60"/>
    </edge>
    <edge id=":3181781060_0" function="internal">
        <lane id=":3181781060_0_0" index="0" disallow="tram rail_urban rail rail_electric rail_fast ship" speed="13.89" length="0.28" shape="864.14,1044.81 864.05,1045.11"/>
        <lane id=":3181781060_0_1" index="1" disallow="tram rail_urban rail rail_electric rail_fast ship" speed="13.89" length="0.28" shape="861.08,1043.88 861.00,1044.12"/>
    </edge>
    <edge id=":3651189260_0" function="internal">
        <lane id=":3651189260_0_0" index="0" allow="pedestrian delivery bicycle" speed="4.79" length="5.39" shape="967.14,650.08 965.67,649.61 964.53,649.78 963.73,650.61 963.27,652.08"/>
    </edge>
    <edge id=":3651189260_1" function="internal">
        <lane id=":3651189260_1_0" index="0" allow="pedestrian bicycle" speed="6.95" length="11.50" width="2.00" shape="967.14,650.08 964.41,648.45 962.50,646.78 960.65,644.99 958.16,642.97"/>
    </edge>
    <edge id=":3651189260_2" function="internal">
        <lane id=":3651189260_2_0" index="0" allow="pedestrian delivery bicycle" speed="3.65" length="4.67" shape="967.14,650.08 966.41,648.83 966.40,647.94 967.11,647.40 968.54,647.20"/>
    </edge>
    <edge id=":3651189260_3" function="internal">
        <lane id=":3651189260_3_0" index="0" allow="pedestrian delivery bicycle" speed="6.65" length="7.55" shape="965.20,641.09 965.12,643.02 965.65,644.68 966.79,646.07 968.54,647.20"/>
    </edge>
    <edge id=":3651189260_4" function="internal">
        <lane id=":3651189260_4_0" index="0" disallow="tram rail_urban rail rail_electric rail_fast ship" speed="13.89" length="11.19" shape="965.20,641.09 963.27,652.08"/>
        <lane id=":3651189260_4_1" index="1" disallow="tram rail_urban rail rail_electric rail_fast ship" speed="13.89" length="11.19" shape="962.06,640.50 960.11,651.56"/>
    </edge>
    <edge id=":3651189260_6" function="internal">
        <lane id=":3651189260_6_0" index="0" allow="pedestrian bicycle" speed="4.82" length="5.95" width="2.00" shape="962.06,640.50 961.49,642.38 960.65,643.42 959.54,643.62 958.16,642.97"/>
    </edge>
    <edge id=":3651189280_0" function="internal">
        <lane id=":3651189280_0_0" index="0" allow="pedestrian delivery bicycle" speed="3.65" length="4.67" shape="1053.44,566.12 1052.51,567.23 1051.68,567.54 1050.92,567.06 1050.26,565.78"/>
    </edge>
    <edge id=":3651189322_0" function="internal">
        <lane id=":3651189322_0_0" index="0" allow="pedestrian delivery bicycle" speed="3.65" length="4.67" shape="1037.82,662.18 1039.10,662.84 1039.60,663.59 1039.29,664.43 1038.19,665.36"/>
    </edge>
    <edge id=":433935137_0" function="internal">
        <lane id=":433935137_0_0" index="0" disallow="tram rail_urban rail rail_electric rail_fast ship" speed="6.79" length="9.45" shape="959.89,714.21 957.22,714.32 955.19,715.17 953.81,716.77 953.08,719.12"/>
    </edge>
    <edge id=":433935137_1" function="internal">
        <lane id=":433935137_1_0" index="0" disallow="tram rail_urban rail rail_electric rail_fast ship" speed="8.24" length="14.37" shape="960.17,711.02 956.16,711.20 953.12,712.53 951.03,715.01 949.91,718.64"/>
    </edge>
    <edge id=":433935137_2" function="internal">
        <lane id=":433935137_2_0" index="0" disallow="tram rail_urban rail rail_electric rail_fast ship" speed="13.89" length="23.34" shape="960.17,711.02 953.72,710.86 948.49,711.22 943.28,711.42 936.89,710.76"/>
    </edge>
    <edge id=":433935137_3" function="internal">
        <lane id=":433935137_3_0" index="0" disallow="tram rail_urban rail rail_electric rail_fast ship" speed="3.65" length="4.67" shape="960.17,711.02 959.05,710.12 958.72,709.28 959.19,708.52 960.45,707.83"/>
    </edge>
    <edge id=":433935137_4" function="internal">
        <lane id=":433935137_4_0" index="0" disallow="tram rail_urban rail rail_electric rail_fast ship" speed="6.52" length="9.19" shape="955.74,698.36 955.82,700.92 956.68,702.83 958.32,704.07 960.73,704.64"/>
    </edge>
    <edge id=":433935137_5" function="internal">
        <lane id=":433935137_5_0" index="0" disallow="tram rail_urban rail rail_electric rail_fast ship" speed="13.89" length="20.85" shape="955.74,698.36 953.08,719.12"/>
        <lane id=":433935137_5_1" index="1" disallow="tram rail_urban rail rail_electric rail_fast ship" speed="13.89" length="20.85" shape="952.56,698.02 949.91,718.64"/>
    </edge>
    <edge id=":433935137_7" function="internal">
        <lane id=":433935137_7_0" index="0" disallow="tram rail_urban rail rail_electric rail_fast ship" speed="9.32" length="20.71" shape="952.56,698.02 951.14,703.15 948.14,706.45 943.58,707.94 937.46,707.61"/>
    </edge>
    <edge id=":433935137_8" function="internal">
        <lane id=":433935137_8_0" index="0" disallow="tram rail_urban rail rail_electric rail_fast ship" speed="13.89" length="22.55" shape="938.59,701.31 944.80,702.45 949.62,703.31 954.46,704.00 960.73,704.64"/>
        <lane id=":433935137_8_1" index="1" disallow="tram rail_urban rail rail_electric rail_fast ship" speed="13.89" length="22.55" shape="938.02,704.46 944.28,705.61 949.19,706.48 954.13,707.18 960.45,707.83"/>
    </edge>
    <edge id=":433935137_10" function="internal">
        <lane id=":433935137_10_0" index="0" disallow="tram rail_urban rail rail_electric rail_fast ship" speed="9.71" length="20.94" shape="938.02,704.46 943.89,706.27 947.83,709.23 949.84,713.36 949.91,718.64"/>
    </edge>
    <edge id=":433935137_11" function="internal">
        <lane id=":433935137_11_0" index="0" disallow="tram rail_urban rail rail_electric rail_fast ship" speed="3.65" length="4.67" shape="938.02,704.46 939.06,705.46 939.31,706.32 938.78,707.03 937.46,707.61"/>
    </edge>
    <edge id=":433935137_12" function="internal">