<configuration>
    <input>
        <net-file value="maps/martini.net.xml"/>
        <route-files value="routes/martini.rou.xml"/>
    </input>
    <time>
        <begin value="0"/>
        <end value="100000"/>
    </time>
</configuration>
