<?xml version="1.0" encoding="UTF-8"?>

<!-- generated on Fri Jun 26 14:24:34 2020 by Eclipse SUMO duarouter Version 1.6.0
<configuration xmlns:xsi="http://www.w3.org/2001/XMLSchema-instance" xsi:noNamespaceSchemaLocation="http://sumo.dlr.de/xsd/duarouterConfiguration.xsd">

    <input>
        <net-file value="sumo_data/maps/martini.net.xml"/>
        <route-files value="sumo_data/trips/martini-bike.trips.xml"/>
    </input>

    <output>
        <output-file value="sumo_data/routes/martini-bike.rou.xml"/>
        <alternatives-output value="sumo_data/routes/martini-bike.rou.alt.xml"/>
    </output>

    <time>
        <begin value="0"/>
        <end value="3600"/>
    </time>

    <report>
        <no-warnings value="true"/>
        <ignore-errors value="true"/>
        <no-step-log value="true"/>
    </report>

</configuration>
-->

<routes xmlns:xsi="http://www.w3.org/2001/XMLSchema-instance" xsi:noNamespaceSchemaLocation="http://sumo.dlr.de/xsd/routes_file.xsd">
    <vType id="bicycle" vClass="bicycle"/>
    <vehicle id="0" type="bicycle" depart="0.00">
        <route edges="296820174#0 296820174#1 -40149625#1 -40149625#0 -503983514"/>
    </vehicle>
    <vehicle id="1" type="bicycle" depart="5.00">
        <route edges="-7763531#4 7763531#4 7763531#5 47237824#0"/>
    </vehicle>
    <vehicle id="2" type="bicycle" depart="10.00">
        <route edges="7763531#2 7763531#3 7763531#4 221065661#6"/>
    </vehicle>
    <vehicle id="3" type="bicycle" depart="15.00">
        <route edges="221065661#5 221065661#6 221065662#0 221065662#1 -104708393 37248169#0 37248169#1 37248169#2 51997212 50220421 40874898 7765206"/>
    </vehicle>
    <vehicle id="4" type="bicycle" depart="20.00">
        <route edges="-40149625#0 40149625#0 40149625#1 104708393 7763600#0"/>
    </vehicle>
    <vehicle id="5" type="bicycle" depart="25.00">
        <route edges="-40149625#1 -40149625#0 -503983514"/>
    </vehicle>
    <vehicle id="6" type="bicycle" depart="30.00">
        <route edges="7763600#5 -7763531#5 221065661#6 221065662#0 221065662#1 37336876#0 37336876#1 37248039 7765509#0 7765509#1"/>
    </vehicle>
    <vehicle id="8" type="bicycle" depart="40.00">
        <route edges="7765206 37336756 503968146 503983514 40149625#0 40149625#1 104708393 7763600#0 7763600#1 7763600#2 7763600#3 7763600#4 7763600#5 -7763531#5 -7763531#4 -7763531#3 -7763531#2 202125395 171895303#0 171895303#1 171895303#2 -171895303#2"/>
    </vehicle>
    <vehicle id="9" type="bicycle" depart="45.00">
        <route edges="-7763531#0 477004463 171895303#0 -171895303#0"/>
    </vehicle>
    <vehicle id="11" type="bicycle" depart="55.00">
        <route edges="7765206 37336756 503968146 503983514 40149625#0 40149625#1 37248169#0 37248169#1 37248169#2 51997212 50220421 40874898"/>
    </vehicle>
    <vehicle id="12" type="bicycle" depart="60.00">
        <route edges="37336756 503968146 503983514 40149625#0 40149625#1 104708393 7763600#0 7763600#1 7763600#2 7763600#3 7763600#4 7763600#5 47237824#0 47237824#1"/>
    </vehicle>
    <vehicle id="13" type="bicycle" depart="65.00">
        <route edges="37336756 503968146 503983514 40149625#0 40149625#1 37248169#0 37248169#1"/>
    </vehicle>
    <vehicle id="14" type="bicycle" depart="70.00">
        <route edges="-171895303#3 -171895303#2 -171895303#1 -171895303#0 -477004463 7763531#0"/>
    </vehicle>
    <vehicle id="15" type="bicycle" depart="75.00">
        <route edges="-35778692#0 35778692#0 35778692#1 -35778692#1"/>
    </vehicle>
    <vehicle id="16" type="bicycle" depart="80.00">
        <route edges="289026882 40149625#0 40149625#1 104708393 7763600#0 7763600#1 7763600#2 7763600#3 7763600#4 7763600#5 -7763531#5 -7763531#4 -7763531#3 -7763531#2 202125395 171895303#0 171895303#1 171895303#2 171895303#3 171895303#4"/>
    </vehicle>
    <vehicle id="17" type="bicycle" depart="85.00">
        <route edges="-171895303#1 -171895303#0 -477004463 7763531#0 7763531#1 7763531#2 7763531#3 7763531#4 221065661#6 221065662#0 221065662#1 -104708393 37248169#0 37248169#1 37248169#2 51997212"/>
    </vehicle>
    <vehicle id="18" type="bicycle" depart="90.00">
        <route edges="-171895303#2 -171895303#1 -171895303#0 -477004463 7763531#0 7763531#1 7763531#2 7763531#3 7763531#4 221065661#6 221065662#0 221065662#1 -104708393 37248169#0 37248169#1 37248169#2 37248169#3 37248169#4"/>
    </vehicle>
    <vehicle id="19" type="bicycle" depart="95.00">
        <route edges="7763600#5 -7763531#5 -7763531#4 -7763531#3 -7763531#2 202125395 171895303#0 171895303#1 171895303#2 171895303#3 171895303#4"/>
    </vehicle>
    <vehicle id="20" type="bicycle" depart="100.00">
        <route edges="503983514 -503983514"/>
    </vehicle>
    <vehicle id="21" type="bicycle" depart="105.00">
        <route edges="-171895303#4 -171895303#3 -171895303#2 -171895303#1 -171895303#0 -477004463 7763531#0 7763531#1 7763531#2"/>
    </vehicle>
    <vehicle id="22" type="bicycle" depart="110.00">
        <route edges="7763531#3 7763531#4 221065661#6 221065662#0 221065662#1 37336876#0 37336876#1 37248039 7765509#0 7765509#1 37248071#0"/>
    </vehicle>
    <vehicle id="23" type="bicycle" depart="115.00">
        <route edges="37248169#1 503963602 509089991 509089990 503983516 503983515 509089987 509089988 37336756 503968146"/>
    </vehicle>
    <vehicle id="24" type="bicycle" depart="120.00">
        <route edges="-171895303#0"/>
    </vehicle>
    <vehicle id="26" type="bicycle" depart="130.00">
        <route edges="7763600#4 7763600#5 -7763531#5 -7763531#4 -7763531#3 -7763531#2 202125395 171895303#0 171895303#1 171895303#2 171895303#3"/>
    </vehicle>
    <vehicle id="27" type="bicycle" depart="135.00">
        <route edges="570518215#0 570518215#1 37336876#0 37336876#1 202126235#0 -171895303#2 171895303#2"/>
    </vehicle>
    <vehicle id="29" type="bicycle" depart="145.00">
        <route edges="183319700#1 183319700#2 7763600#5 -7763531#5 221065661#6 221065662#0 221065662#1"/>
    </vehicle>
    <vehicle id="30" type="bicycle" depart="150.00">
        <route edges="-7763531#3 7763531#3 7763531#4 221065661#6 221065662#0 221065662#1 -104708393"/>
    </vehicle>
    <vehicle id="31" type="bicycle" depart="155.00">
        <route edges="-35778692#0 570518215#0 570518215#1 37336876#0 37336876#1 37248039 7765509#0 7765509#1 37248071#0"/>
    </vehicle>
    <vehicle id="34" type="bicycle" depart="170.00">
        <route edges="-7763531#0 7763531#0 7763531#1 7763531#2 7763531#3 7763531#4 221065661#6 221065662#0 221065662#1 37336876#0 37336876#1"/>
    </vehicle>
    <vehicle id="35" type="bicycle" depart="175.00">
        <route edges="7763600#0 7763600#1 7763600#2 7763600#3 7763600#4 7763600#5 -7763531#5 221065661#6 221065662#0"/>
    </vehicle>
    <vehicle id="36" type="bicycle" depart="180.00">
        <route edges="7763600#1 7763600#2 7763600#3 7763600#4 7763600#5 -7763531#5 221065661#6 221065662#0 221065662#1 -104708393 37248169#0 37248169#1 503963602 509089991 509089990 503983516 503983515 509089987 509089988 37336756"/>
    </vehicle>
    <vehicle id="38" type="bicycle" depart="190.00">
        <route edges="7763600#3 7763600#4 7763600#5"/>
    </vehicle>
    <vehicle id="39" type="bicycle" depart="195.00">
        <route edges="221065661#2 221065661#3 221065661#4 221065661#5 221065661#6"/>
    </vehicle>
    <vehicle id="40" type="bicycle" depart="200.00">
        <route edges="-477004463 7763531#0 7763531#1 7763531#2 7763531#3 7763531#4 221065661#6 221065662#0 221065662#1 -104708393 -40149625#1 -40149625#0 -289026882"/>
    </vehicle>
    <vehicle id="41" type="bicycle" depart="205.00">
        <route edges="221065661#2 221065661#3 221065661#4 221065661#5 -7763531#4 -7763531#3 -7763531#2 202125395 -477004463"/>
    </vehicle>
    <vehicle id="43" type="bicycle" depart="215.00">
        <route edges="202126235#0 -171895303#2 -171895303#1 -171895303#0 -477004463 7763531#0 7763531#1 7763531#2 7763531#3 7763531#4 221065661#6 221065662#0 221065662#1 37336876#0 37336876#1"/>
    </vehicle>
    <vehicle id="44" type="bicycle" depart="220.00">
        <route edges="40149625#0 40149625#1 37248169#0 37248169#1 37248169#2 37248169#3"/>
    </vehicle>
    <vehicle id="45" type="bicycle" depart="225.00">
        <route edges="221065661#5 -7763531#4 -7763531#3 -7763531#2 202125395 171895303#0 171895303#1 171895303#2 171895303#3"/>
    </vehicle>
    <vehicle id="46" type="bicycle" depart="230.00">
        <route edges="-503983514 503983514 40149625#0 -40149625#0"/>
    </vehicle>
    <vehicle id="47" type="bicycle" depart="235.00">
        <route edges="-7763531#2 7763531#2 7763531#3 7763531#4 7763531#5 47237824#0"/>
    </vehicle>
    <vehicle id="48" type="bicycle" depart="240.00">
        <route edges="50220421 40874898 7765206 37336756 503968146 503983514 -503983514"/>
    </vehicle>
    <vehicle id="54" type="bicycle" depart="270.00">
        <route edges="-7763531#1 7763531#1 7763531#2 7763531#3 7763531#4 221065661#6 221065662#0 221065662#1 37336876#0 37336876#1 37248039 7765509#0 7765509#1 37248071#0"/>
    </vehicle>
    <vehicle id="55" type="bicycle" depart="275.00">
        <route edges="7763600#5 -7763531#5 -7763531#4 -7763531#3 -7763531#2 202125395 171895303#0 171895303#1"/>
    </vehicle>
    <vehicle id="57" type="bicycle" depart="285.00">
        <route edges="-171895303#4 -171895303#3 -171895303#2 -171895303#1 -171895303#0 -477004463 7763531#0 7763531#1 7763531#2 7763531#3 7763531#4 221065661#6 221065662#0 221065662#1 -104708393 -40149625#1 -40149625#0 -503983514 503983514"/>
    </vehicle>
    <vehicle id="60" type="bicycle" depart="300.00">
        <route edges="7763600#5 -7763531#5 221065661#6 221065662#0 221065662#1 37336876#0 37336876#1 37248039"/>
    </vehicle>
    <vehicle id="61" type="bicycle" depart="305.00">
        <route edges="221065662#1 -104708393 -40149625#1 -40149625#0 -503983514 503983514"/>
    </vehicle>
    <vehicle id="63" type="bicycle" depart="315.00">
        <route edges="7765509#0 7765509#1 157061814 202126235#0 -171895303#2 171895303#2"/>
    </vehicle>
    <vehicle id="64" type="bicycle" depart="320.00">
        <route edges="50220421 40874898 7765206 37336756 503968146 503983514 40149625#0 40149625#1 104708393 7763600#0 7763600#1 7763600#2 7763600#3 7763600#4 7763600#5 -7763531#5 -7763531#4 -7763531#3 -7763531#2 202125395 171895303#0 171895303#1 171895303#2 171895303#3 -171895303#3"/>
    </vehicle>
    <vehicle id="65" type="bicycle" depart="325.00">
        <route edges="-40149625#1 40149625#1 104708393 7763600#0 7763600#1 7763600#2 7763600#3 7763600#4 7763600#5 -7763531#5 -7763531#4 -7763531#3 -7763531#2 202125395 171895303#0 171895303#1 171895303#2 171895303#3 171895303#4"/>
    </vehicle>
    <vehicle id="66" type="bicycle" depart="330.00">
        <route edges="35778692#3 -35778692#3 -35778692#2 -35778692#1 -35778692#0 570518215#0 570518215#1 7763600#0 7763600#1 7763600#2 7763600#3 7763600#4"/>
    </vehicle>
    <vehicle id="68" type="bicycle" depart="340.00">
        <route edges="171895303#3 -171895303#3 -171895303#2 -171895303#1 -171895303#0 -477004463"/>
    </vehicle>
    <vehicle id="69" type="bicycle" depart="345.00">
        <route edges="171895303#2 -171895303#2 -171895303#1 -171895303#0 -477004463 7763531#0 7763531#1 7763531#2 7763531#3 7763531#4 221065661#6 221065662#0 221065662#1 37336876#0"/>
    </vehicle>
    <vehicle id="70" type="bicycle" depart="350.00">
        <route edges="-7763531#4 7763531#4 221065661#6 221065662#0 221065662#1 -104708393 104708393"/>
    </vehicle>
    <vehicle id="71" type="bicycle" depart="355.00">
        <route edges="221065661#3 221065661#4 221065661#5 -7763531#4 -7763531#3 -7763531#2 202125395 171895303#0"/>
    </vehicle>
    <vehicle id="72" type="bicycle" depart="360.00">
        <route edges="-171895303#1 171895303#1 171895303#2 171895303#3 -171895303#3"/>
    </vehicle>
    <vehicle id="73" type="bicycle" depart="365.00">
        <route edges="-35778692#3 35778692#3 183319700#0 183319700#1 183319700#2 7763600#5 -7763531#5 -7763531#4 -7763531#3 -7763531#2 -7763531#1 -7763531#0 7763531#0"/>
    </vehicle>
    <vehicle id="75" type="bicycle" depart="375.00">
        <route edges="7763531#2 7763531#3 7763531#4 221065661#6 221065662#0 221065662#1 -104708393 37248169#0 37248169#1 37248169#2 37248169#3 37248169#4"/>
    </vehicle>
    <vehicle id="77" type="bicycle" depart="385.00">
        <route edges="104708393 7763600#0 7763600#1 7763600#2 7763600#3 7763600#4 7763600#5 -7763531#5 221065661#6 221065662#0 221065662#1 -104708393 37248169#0 37248169#1 37248169#2 37248169#3"/>
    </vehicle>
    <vehicle id="78" type="bicycle" depart="390.00">
        <route edges="40149625#0 40149625#1 104708393 7763600#0"/>
    </vehicle>
    <vehicle id="79" type="bicycle" depart="395.00">
        <route edges="35778692#3 183319700#0 183319700#1 183319700#2 7763600#5 -7763531#5 -7763531#4 -7763531#3 -7763531#2 -7763531#1 -7763531#0"/>
    </vehicle>
    <vehicle id="80" type="bicycle" depart="400.00">
        <route edges="221065662#0 221065662#1 -104708393 -40149625#1"/>
    </vehicle>
    <vehicle id="81" type="bicycle" depart="405.00">
        <route edges="7763600#1 7763600#2 7763600#3 7763600#4 7763600#5 -7763531#5 221065661#6 221065662#0 221065662#1 37336876#0 37336876#1 37248039 7765509#0 7765509#1 37248071#0"/>
    </vehicle>
    <vehicle id="83" type="bicycle" depart="415.00">
        <route edges="37336876#1 202126235#0 -171895303#2 -171895303#1 -171895303#0 -477004463 7763531#0 7763531#1"/>
    </vehicle>
    <vehicle id="84" type="bicycle" depart="420.00">
        <route edges="37248071#1 104708393 7763600#0 7763600#1 7763600#2 7763600#3 7763600#4 7763600#5 -7763531#5 -7763531#4 -7763531#3 -7763531#2 202125395 171895303#0 171895303#1 171895303#2 -171895303#2"/>
    </vehicle>
    <vehicle id="85" type="bicycle" depart="425.00">
        <route edges="-35778692#0 296820174#0"/>
    </vehicle>
    <vehicle id="87" type="bicycle" depart="435.00">
        <route edges="39272721 183319700#0 183319700#1 183319700#2 7763600#5 -7763531#5 221065661#6 221065662#0 221065662#1 -104708393 -40149625#1 -40149625#0 -503983514"/>
    </vehicle>
    <vehicle id="88" type="bicycle" depart="440.00">
        <route edges="35778692#2 -35778692#2 -35778692#1 -35778692#0 37336732 51997212 50220421 40874898 7765206 37336756"/>
    </vehicle>
    <vehicle id="89" type="bicycle" depart="445.00">
        <route edges="-35778692#0 570518215#0 570518215#1 7763600#0 7763600#1 7763600#2"/>
    </vehicle>
    <vehicle id="90" type="bicycle" depart="450.00">
        <route edges="221065661#4 221065661#5 221065661#6 221065662#0"/>
    </vehicle>
    <vehicle id="91" type="bicycle" depart="455.00">
        <route edges="171895303#1 -171895303#1 -171895303#0 -477004463 7763531#0 7763531#1 7763531#2 7763531#3 7763531#4 221065661#6 221065662#0 221065662#1 -104708393 -40149625#1 -40149625#0 -503983514"/>
    </vehicle>
    <vehicle id="92" type="bicycle" depart="460.00">
        <route edges="-477004463 477004463 171895303#0 171895303#1 171895303#2 171895303#3"/>
    </vehicle>
    <vehicle id="94" type="bicycle" depart="470.00">
        <route edges="503983514 40149625#0 40149625#1 104708393 7763600#0 7763600#1 7763600#2 7763600#3 7763600#4 7763600#5 -7763531#5 -7763531#4 -7763531#3 -7763531#2 202125395 171895303#0 171895303#1 -171895303#1"/>
    </vehicle>
    <vehicle id="95" type="bicycle" depart="475.00">
        <route edges="39272934 570518215#0 570518215#1 7763600#0 7763600#1 7763600#2 7763600#3 7763600#4 7763600#5 -7763531#5 -7763531#4 -7763531#3 -7763531#2 202125395 171895303#0 171895303#1"/>
    </vehicle>
    <vehicle id="98" type="bicycle" depart="490.00">
        <route edges="289026882 40149625#0 40149625#1 37248169#0 37248169#1 37248169#2 37248169#3"/>
    </vehicle>
    <vehicle id="100" type="bicycle" depart="500.00">
        <route edges="183319700#1 183319700#2 7763600#5 -7763531#5 -7763531#4 -7763531#3 -7763531#2 -7763531#1 -7763531#0 -477004462"/>
    </vehicle>
    <vehicle id="103" type="bicycle" depart="515.00">
        <route edges="-477004463 7763531#0 7763531#1 7763531#2 7763531#3 7763531#4 221065661#6 221065662#0 221065662#1 -104708393 37248169#0 37248169#1"/>
    </vehicle>
    <vehicle id="104" type="bicycle" depart="520.00">
        <route edges="-35778692#1 -35778692#0 296820174#0 296820174#1 -40149625#1 40149625#1 37248169#0"/>
    </vehicle>
    <vehicle id="105" type="bicycle" depart="525.00">
        <route edges="-7763531#4 7763531#4 221065661#6 221065662#0 221065662#1 37336876#0 37336876#1 37248039 7765509#0 7765509#1 37248071#0"/>
    </vehicle>
    <vehicle id="106" type="bicycle" depart="530.00">
        <route edges="221065661#0 221065661#1 221065661#2 221065661#3 221065661#4 221065661#5 -7763531#4 -7763531#3 -7763531#2 -7763531#1 73342459"/>
    </vehicle>
    <vehicle id="107" type="bicycle" depart="535.00">
        <route edges="37248169#0 37248169#1 503963602 509089991 509089990 503983516 503983515 509089987 509089988 37336756 503968146 503983514 40149625#0 40149625#1 104708393 7763600#0 7763600#1 7763600#2 7763600#3 7763600#4 7763600#5 -7763531#5 -7763531#4 -7763531#3 -7763531#2 202125395 -477004463"/>
    </vehicle>
    <vehicle id="109" type="bicycle" depart="545.00">
        <route edges="183319700#1 183319700#2 7763600#5 -7763531#5 221065661#6 221065662#0 221065662#1 -104708393"/>
    </vehicle>
    <vehicle id="111" type="bicycle" depart="555.00">
        <route edges="37336756 503968146 503983514 40149625#0 40149625#1 104708393 7763600#0 7763600#1 7763600#2 7763600#3 7763600#4 7763600#5"/>
    </vehicle>
    <vehicle id="112" type="bicycle" depart="560.00">
        <route edges="221065661#0 221065661#1 221065661#2 221065661#3 221065661#4 221065661#5 -7763531#4 -7763531#3 -7763531#2 -7763531#1 -7763531#0 7763531#0"/>
    </vehicle>
    <vehicle id="113" type="bicycle" depart="565.00">
        <route edges="503968146 503983514 40149625#0 40149625#1 104708393 7763600#0 7763600#1 7763600#2 7763600#3 7763600#4 7763600#5 -7763531#5 -7763531#4 -7763531#3 -7763531#2 202125395 171895303#0 171895303#1 171895303#2 171895303#3 171895303#4"/>
    </vehicle>
    <vehicle id="114" type="bicycle" depart="570.00">
        <route edges="-171895303#2 -171895303#1 -171895303#0 -477004463 7763531#0 7763531#1 7763531#2 7763531#3 7763531#4 221065661#6 221065662#0 221065662#1 -104708393 37248169#0 37248169#1 37248169#2 51997212 50220421 40874898 7765206"/>
    </vehicle>
    <vehicle id="115" type="bicycle" depart="575.00">
        <route edges="-40149625#0 40149625#0 40149625#1 104708393 7763600#0 7763600#1 7763600#2 7763600#3 7763600#4 7763600#5 -7763531#5 221065661#6 221065662#0 221065662#1"/>
    </vehicle>
    <vehicle id="117" type="bicycle" depart="585.00">
        <route edges="7763600#3 7763600#4 7763600#5 -7763531#5 221065661#6 221065662#0 221065662#1 37336876#0 37336876#1 37248039 7765509#0 7765509#1 37248071#0"/>
    </vehicle>
    <vehicle id="118" type="bicycle" depart="590.00">
        <route edges="7763531#1 7763531#2 7763531#3 7763531#4 221065661#6 221065662#0 221065662#1 37336876#0"/>
    </vehicle>
    <vehicle id="119" type="bicycle" depart="595.00">
        <route edges="7763531#4 221065661#6 221065662#0 221065662#1 7763600#0 7763600#1 7763600#2"/>
    </vehicle>
    <vehicle id="122" type="bicycle" depart="610.00">
        <route edges="7763531#3 7763531#4 221065661#6 221065662#0 221065662#1 37336876#0 37336876#1 202126235#0"/>
    </vehicle>
    <vehicle id="123" type="bicycle" depart="615.00">
        <route edges="-171895303#2 -171895303#1 -171895303#0 -477004463 7763531#0 7763531#1 7763531#2 7763531#3 7763531#4 221065661#6 221065662#0 221065662#1 -104708393 37248169#0 37248169#1 37248169#2 37248169#3"/>
    </vehicle>
    <vehicle id="124" type="bicycle" depart="620.00">
        <route edges="7763600#1 7763600#2 7763600#3 7763600#4 7763600#5 -7763531#5 -7763531#4 -7763531#3 -7763531#2 202125395 -477004463"/>
    </vehicle>
    <vehicle id="125" type="bicycle" depart="625.00">
        <route edges="7765206 37336756 503968146 503983514 40149625#0 40149625#1 37248169#0 37248169#1 37248169#2 37248169#3 37248169#4"/>
    </vehicle>
    <vehicle id="127" type="bicycle" depart="635.00">
        <route edges="7763600#1 7763600#2 7763600#3 7763600#4 7763600#5 -7763531#5 -7763531#4 -7763531#3 7763531#3"/>
    </vehicle>
    <vehicle id="128" type="bicycle" depart="640.00">
        <route edges="37336876#0 37336876#1 37248039 7765509#0 7765509#1 37248071#0 37248071#1 104708393 7763600#0 7763600#1 7763600#2 7763600#3 7763600#4 7763600#5"/>
    </vehicle>
    <vehicle id="129" type="bicycle" depart="645.00">
        <route edges="-171895303#2 -171895303#1 -171895303#0 -477004463 7763531#0 7763531#1 7763531#2 7763531#3 7763531#4 221065661#6 221065662#0 221065662#1 -104708393 37248169#0 37248169#1 37248169#2"/>
    </vehicle>
    <vehicle id="130" type="bicycle" depart="650.00">
        <route edges="-40149625#1 40149625#1 104708393 7763600#0 7763600#1 7763600#2 7763600#3 7763600#4 7763600#5 -7763531#5 221065661#6 221065662#0 221065662#1 37336876#0 37336876#1"/>
    </vehicle>
    <vehicle id="131" type="bicycle" depart="655.00">
        <route edges="37248169#0 37248169#1 503963602 509089991 509089990 503983516 503983515 509089987 509089988 37336756 503968146 503983514 40149625#0 40149625#1 104708393 7763600#0 7763600#1 7763600#2 7763600#3 7763600#4 7763600#5 -7763531#5 221065661#6 221065662#0 221065662#1 37336876#0 37336876#1 37248039 7765509#0 7765509#1 37248071#0"/>
    </vehicle>
    <vehicle id="132" type="bicycle" depart="660.00">
        <route edges="289026882 40149625#0 40149625#1 104708393 7763600#0 7763600#1 7763600#2 7763600#3 7763600#4 7763600#5 -7763531#5 -7763531#4 -7763531#3 -7763531#2 7763531#2"/>
    </vehicle>
    <vehicle id="133" type="bicycle" depart="665.00">
        <route edges="37336844 7765206 37336756 503968146 503983514 40149625#0 40149625#1 104708393 7763600#0 7763600#1 7763600#2 7763600#3 7763600#4 7763600#5 -7763531#5 -7763531#4 -7763531#3 -7763531#2 202125395 171895303#0 171895303#1"/>
    </vehicle>
    <vehicle id="135" type="bicycle" depart="675.00">
        <route edges="37248169#1 503963602 509089991 509089990 503983516 503983515 509089987 509089988 37336756 503968146 503983514 40149625#0 40149625#1 104708393 7763600#0 7763600#1"/>
    </vehicle>
    <vehicle id="136" type="bicycle" depart="680.00">
        <route edges="7765509#0 7765509#1 37248071#0 37248071#1 104708393 7763600#0"/>
    </vehicle>
    <vehicle id="139" type="bicycle" depart="695.00">
        <route edges="7763600#3 7763600#4 7763600#5 -7763531#5 -7763531#4 -7763531#3 -7763531#2 202125395 171895303#0 171895303#1 171895303#2 171895303#3 171895303#4"/>
    </vehicle>
    <vehicle id="141" type="bicycle" depart="705.00">
        <route edges="37336844 7765206 37336756 503968146 503983514 40149625#0 40149625#1 104708393 7763600#0 7763600#1 7763600#2 7763600#3 7763600#4 7763600#5 -7763531#5 221065661#6 221065662#0 221065662#1 37336876#0 37336876#1 37248039 7765509#0 7765509#1"/>
    </vehicle>
    <vehicle id="142" type="bicycle" depart="710.00">
        <route edges="39272934 570518215#0 570518215#1 7763600#0 7763600#1 7763600#2 7763600#3 7763600#4 7763600#5 -7763531#5 -7763531#4 -7763531#3 -7763531#2"/>
    </vehicle>
    <vehicle id="143" type="bicycle" depart="715.00">
        <route edges="221065662#0 221065662#1 7763600#0 7763600#1 7763600#2 7763600#3 7763600#4 7763600#5 -7763531#5 -7763531#4 -7763531#3 -7763531#2 202125395 171895303#0"/>
    </vehicle>
    <vehicle id="144" type="bicycle" depart="720.00">
        <route edges="221065661#3 221065661#4 221065661#5 -7763531#4 -7763531#3 -7763531#2 7763531#2"/>
    </vehicle>
    <vehicle id="145" type="bicycle" depart="725.00">
        <route edges="-40149625#1 40149625#1 104708393 7763600#0 7763600#1 7763600#2 7763600#3 7763600#4 7763600#5 -7763531#5 221065661#6 221065662#0 221065662#1 37336876#0 37336876#1 37248039 7765509#0 7765509#1"/>
    </vehicle>
    <vehicle id="147" type="bicycle" depart="735.00">
        <route edges="-171895303#3 -171895303#2 -171895303#1 -171895303#0 -477004463 7763531#0 7763531#1 7763531#2 7763531#3 7763531#4 221065661#6 221065662#0 221065662#1 37336876#0 37336876#1 37248039 7765509#0"/>
    </vehicle>
    <vehicle id="148" type="bicycle" depart="740.00">
        <route edges="7763600#0 7763600#1 7763600#2 7763600#3 7763600#4 7763600#5 -7763531#5 221065661#6 221065662#0 221065662#1 -104708393 104708393"/>
    </vehicle>
    <vehicle id="151" type="bicycle" depart="755.00">
        <route edges="7763531#3 7763531#4 -7763531#4 -7763531#3 -7763531#2 202125395 171895303#0 171895303#1 171895303#2 171895303#3"/>
    </vehicle>
    <vehicle id="152" type="bicycle" depart="760.00">
        <route edges="39272721 183319700#0 183319700#1 183319700#2 7763600#5 -7763531#5 -7763531#4"/>
    </vehicle>
    <vehicle id="153" type="bicycle" depart="765.00">
        <route edges="221065661#2 221065661#3 221065661#4 221065661#5 221065661#6 221065662#0 221065662#1 37336876#0 37336876#1 37248039 7765509#0 7765509#1"/>
    </vehicle>
    <vehicle id="155" type="bicycle" depart="775.00">
        <route edges="-7763531#4 7763531#4 221065661#6 221065662#0 221065662#1 37336876#0 37336876#1 202126235#0"/>
    </vehicle>
    <vehicle id="156" type="bicycle" depart="780.00">
        <route edges="-35778692#2 35778692#2 35778692#3 183319700#0"/>
    </vehicle>
    <vehicle id="159" type="bicycle" depart="795.00">
        <route edges="37248169#1 503963602 509089991 509089990 503983516 503983515 509089987 509089988 37336756 503968146 503983514 40149625#0 40149625#1 104708393 7763600#0 7763600#1 7763600#2 7763600#3 7763600#4 7763600#5 -7763531#5 -7763531#4 -7763531#3 -7763531#2 202125395 171895303#0 171895303#1 171895303#2 171895303#3 -171895303#3"/>
    </vehicle>
    <vehicle id="160" type="bicycle" depart="800.00">
        <route edges="7763600#4 7763600#5 -7763531#5 -7763531#4 -7763531#3 -7763531#2 -7763531#1 -7763531#0 477004463"/>
    </vehicle>
    <vehicle id="161" type="bicycle" depart="805.00">
        <route edges="-40149625#0 40149625#0"/>
    </vehicle>
    <vehicle id="162" type="bicycle" depart="810.00">
        <route edges="50220421 40874898 7765206 37336756 503968146 503983514 40149625#0 40149625#1 104708393 7763600#0 7763600#1 7763600#2 7763600#3 7763600#4 7763600#5 -7763531#5 221065661#6 221065662#0 221065662#1 37336876#0 37336876#1 37248039 7765509#0"/>
    </vehicle>
    <vehicle id="163" type="bicycle" depart="815.00">
        <route edges="-7763531#3 7763531#3"/>
    </vehicle>
    <vehicle id="164" type="bicycle" depart="820.00">
        <route edges="7763531#5 -7763531#5 221065661#6 221065662#0 221065662#1 -104708393 37248169#0 37248169#1 37248169#2 51997212 50220421 40874898 7765206"/>
    </vehicle>
    <vehicle id="165" type="bicycle" depart="825.00">
        <route edges="7763531#4 221065661#6 221065662#0 221065662#1 37336876#0 37336876#1 37248039"/>
    </vehicle>
    <vehicle id="166" type="bicycle" depart="830.00">
        <route edges="7765206 37336756 503968146 503983514 40149625#0 40149625#1 104708393 7763600#0 7763600#1 7763600#2 7763600#3 7763600#4 7763600#5 -7763531#5 -7763531#4"/>
    </vehicle>
    <vehicle id="167" type="bicycle" depart="835.00">
        <route edges="37336844 7765206 37336756 503968146 503983514 40149625#0 40149625#1 104708393 7763600#0 7763600#1 7763600#2 7763600#3 7763600#4 7763600#5 -7763531#5 -7763531#4"/>
    </vehicle>
    <vehicle id="169" type="bicycle" depart="845.00">
        <route edges="-7763531#3 7763531#3 7763531#4 221065661#6 221065662#0 221065662#1 7763600#0 7763600#1 7763600#2 7763600#3 7763600#4"/>
    </vehicle>
    <vehicle id="170" type="bicycle" depart="850.00">
        <route edges="39272721 183319700#0 183319700#1 183319700#2 7763600#5 -7763531#5 -7763531#4 -7763531#3 -7763531#2 -7763531#1"/>
    </vehicle>
    <vehicle id="171" type="bicycle" depart="855.00">
        <route edges="38188264 37336844 7765206 37336756 503968146 503983514 40149625#0 40149625#1 104708393 7763600#0 7763600#1 7763600#2 7763600#3 7763600#4 7763600#5 -7763531#5 -7763531#4 -7763531#3 7763531#3"/>
    </vehicle>
    <vehicle id="172" type="bicycle" depart="860.00">
        <route edges="7763531#5 -7763531#5 -7763531#4 -7763531#3 -7763531#2 -7763531#1 -7763531#0 -477004462"/>
    </vehicle>
    <vehicle id="174" type="bicycle" depart="870.00">
        <route edges="171895303#2 171895303#3 -171895303#3"/>
    </vehicle>
    <vehicle id="176" type="bicycle" depart="880.00">
        <route edges="40149625#1 104708393 7763600#0 7763600#1 7763600#2 7763600#3 7763600#4 7763600#5 47237824#0"/>
    </vehicle>
    <vehicle id="177" type="bicycle" depart="885.00">
        <route edges="37336756 503968146 503983514 40149625#0 40149625#1 37248169#0 37248169#1 37248169#2"/>
    </vehicle>
    <vehicle id="178" type="bicycle" depart="890.00">
        <route edges="40149625#1 -40149625#1 -40149625#0 40149625#0"/>
    </vehicle>
    <vehicle id="179" type="bicycle" depart="895.00">
        <route edges="40874898 7765206 37336756 503968146 503983514 40149625#0 40149625#1 104708393 7763600#0 7763600#1 7763600#2 7763600#3 7763600#4 7763600#5 -7763531#5 -7763531#4 -7763531#3 -7763531#2 202125395 171895303#0 -171895303#0"/>
    </vehicle>
    <vehicle id="180" type="bicycle" depart="900.00">
        <route edges="183319700#0 183319700#1 183319700#2 7763600#5 -7763531#5 221065661#6 221065662#0 221065662#1 7763600#0 7763600#1 7763600#2 7763600#3 7763600#4"/>
    </vehicle>
    <vehicle id="181" type="bicycle" depart="905.00">
        <route edges="221065662#1 7763600#0 7763600#1 7763600#2 7763600#3 7763600#4 7763600#5 -7763531#5 -7763531#4 -7763531#3 -7763531#2 -7763531#1 -7763531#0 7763531#0"/>
    </vehicle>
    <vehicle id="182" type="bicycle" depart="910.00">
        <route edges="39272721 183319700#0 183319700#1 183319700#2 7763600#5"/>
    </vehicle>