<routes>
    <vehicle id="0" depart="0.00"><route edges="37248169#2 51997212 50220421 40874898 7765206 37336756 503968146 503983514 40149625#0 40149625#1 104708393 7763600#0 7763600#1 7763600#2 7763600#3 7763600#4 7763600#5 -7763531#5 221065661#6 221065662#0 221065662#1 -104708393 "></route></vehicle>
    <vehicle id="1" depart="5.00"><route edges="221065661#2 221065661#3 221065661#4 221065661#5 -7763531#4 -7763531#3 -7763531#2 "></route></vehicle>
    <vehicle id="2" depart="10.00"><route edges="7763531#4 -7763531#4 -7763531#3 -7763531#2 -7763531#1 -7763531#0 7763531#0 "></route></vehicle>
    <vehicle id="4" depart="20.00"><route edges="7763531#0 -7763531#0 "></route></vehicle>
    <vehicle id="5" depart="25.00"><route edges="7763531#4 221065661#6 221065662#0 221065662#1 7763600#0 7763600#1 7763600#2 7763600#3 7763600#4 7763600#5 "></route></vehicle>
    <vehicle id="6" depart="30.00"><route edges="171895303#1 171895303#2 171895303#3 "></route></vehicle>
    <vehicle id="8" depart="40.00"><route edges="40874898 7765206 37336756 503968146 503983514 40149625#0 40149625#1 104708393 7763600#0 7763600#1 7763600#2 7763600#3 7763600#4 7763600#5 -7763531#5 221065661#6 221065662#0 221065662#1 37336876#0 37336876#1 "></route></vehicle>
    <vehicle id="9" depart="45.00"><route edges="171895303#3 -171895303#3 -171895303#2 -171895303#1 -171895303#0 -477004463 7763531#0 7763531#1 7763531#2 "></route></vehicle>
    <vehicle id="10" depart="50.00"><route edges="37336756 503968146 503983514 40149625#0 40149625#1 104708393 7763600#0 7763600#1 7763600#2 7763600#3 7763600#4 7763600#5 -7763531#5 -7763531#4 -7763531#3 -7763531#2 -7763531#1 -7763531#0 477004463 171895303#0 "></route></vehicle>
    <vehicle id="12" depart="60.00"><route edges="50220421 40874898 7765206 37336756 503968146 503983514 40149625#0 40149625#1 104708393 7763600#0 7763600#1 7763600#2 7763600#3 7763600#4 7763600#5 -7763531#5 -7763531#4 -7763531#3 -7763531#2 -7763531#1 -7763531#0 477004463 171895303#0 -171895303#0 "></route></vehicle>
    <vehicle id="13" depart="65.00"><route edges="40149625#0 40149625#1 104708393 7763600#0 7763600#1 7763600#2 7763600#3 7763600#4 7763600#5 -7763531#5 -7763531#4 -7763531#3 -7763531#2 -7763531#1 -7763531#0 477004463 171895303#0 171895303#1 171895303#2 171895303#3 -171895303#3 "></route></vehicle>
    <vehicle id="14" depart="70.00"><route edges="7763531#4 -7763531#4 -7763531#3 -7763531#2 -7763531#1 -7763531#0 "></route></vehicle>
    <vehicle id="20" depart="100.00"><route edges="39272721 39272775 "></route></vehicle>
    <vehicle id="21" depart="105.00"><route edges="-171895303#0 -477004463 7763531#0 7763531#1 7763531#2 "></route></vehicle>
    <vehicle id="22" depart="110.00"><route edges="503968146 503983514 40149625#0 40149625#1 104708393 7763600#0 7763600#1 7763600#2 7763600#3 7763600#4 7763600#5 -7763531#5 -7763531#4 -7763531#3 -7763531#2 -7763531#1 -7763531#0 "></route></vehicle>
    <vehicle id="23" depart="115.00"><route edges="7765509#0 7765509#1 37248071#0 37248071#1 37248169#0 37248169#1 37248169#2 51997212 50220421 "></route></vehicle>
    <vehicle id="24" depart="120.00"><route edges="221065661#2 221065661#3 221065661#4 221065661#5 221065661#6 221065662#0 221065662#1 -104708393 37248169#0 37248169#1 37248169#2 51997212 50220421 40874898 7765206 "></route></vehicle>
    <vehicle id="25" depart="125.00"><route edges="50220421 40874898 7765206 "></route></vehicle>
    <vehicle id="26" depart="130.00"><route edges="202126235#0 -171895303#2 -171895303#1 -171895303#0 -477004463 7763531#0 7763531#1 7763531#2 7763531#3 7763531#4 221065661#6 221065662#0 221065662#1 -104708393 37248169#0 37248169#1 "></route></vehicle>
    <vehicle id="27" depart="135.00"><route edges="-35778692#1 -35778692#0 570518215#0 570518215#1 7763600#0 7763600#1 7763600#2 7763600#3 7763600#4 7763600#5 -7763531#5 "></route></vehicle>
    <vehicle id="28" depart="140.00"><route edges="39272934 296820174#0 296820174#1 -40149625#1 -40149625#0 "></route></vehicle>
    <vehicle id="29" depart="145.00"><route edges="37336756 503968146 503983514 40149625#0 40149625#1 104708393 7763600#0 7763600#1 7763600#2 7763600#3 7763600#4 7763600#5 -7763531#5 -7763531#4 -7763531#3 -7763531#2 -7763531#1 -7763531#0 477004463 171895303#0 171895303#1 "></route></vehicle>
    <vehicle id="30" depart="150.00"><route edges="40149625#1 104708393 7763600#0 7763600#1 7763600#2 7763600#3 7763600#4 7763600#5 -7763531#5 -7763531#4 -7763531#3 -7763531#2 -7763531#1 -7763531#0 7763531#0 "></route></vehicle>
    <vehicle id="31" depart="155.00"><route edges="-40149625#0 40149625#0 40149625#1 104708393 7763600#0 7763600#1 7763600#2 7763600#3 7763600#4 7763600#5 47237824#0 "></route></vehicle>
    <vehicle id="34" depart="170.00"><route edges="-7763531#2 7763531#2 7763531#3 7763531#4 221065661#6 221065662#0 221065662#1 -104708393 37248169#0 37248169#1 "></route></vehicle>
    <vehicle id="35" depart="175.00"><route edges="296820174#1 -40149625#1 40149625#1 37248169#0 37248169#1 37248169#2 37248169#3 "></route></vehicle>
    <vehicle id="37" depart="185.00"><route edges="221065661#4 221065661#5 221065661#6 221065662#0 221065662#1 -104708393 37248169#0 37248169#1 37248169#2 51997212 50220421 40874898 7765206 37336756 "></route></vehicle>
    <vehicle id="38" depart="190.00"><route edges="7765206 37336756 503968146 503983514 40149625#0 40149625#1 -40149625#1 "></route></vehicle>
    <vehicle id="39" depart="195.00"><route edges="7763531#1 7763531#2 7763531#3 7763531#4 221065661#6 221065662#0 221065662#1 -104708393 37248169#0 37248169#1 37248169#2 37248169#3 "></route></vehicle>
    <vehicle id="40" depart="200.00"><route edges="7763531#1 -7763531#1 -7763531#0 477004463 171895303#0 171895303#1 -171895303#1 "></route></vehicle>
    <vehicle id="41" depart="205.00"><route edges="477004463 -477004463 7763531#0 7763531#1 7763531#2 7763531#3 7763531#4 221065661#6 221065662#0 221065662#1 7763600#0 7763600#1 7763600#2 7763600#3 7763600#4 7763600#5 "></route></vehicle>
    <vehicle id="43" depart="215.00"><route edges="37248169#2 51997212 50220421 40874898 7765206 37336756 503968146 503983514 40149625#0 40149625#1 104708393 7763600#0 7763600#1 7763600#2 7763600#3 7763600#4 7763600#5 47237824#0 47237824#1 "></route></vehicle>
    <vehicle id="44" depart="220.00"><route edges="-40149625#1 40149625#1 104708393 7763600#0 7763600#1 7763600#2 7763600#3 7763600#4 7763600#5 -7763531#5 -7763531#4 -7763531#3 -7763531#2 -7763531#1 -7763531#0 477004463 171895303#0 171895303#1 171895303#2 -171895303#2 "></route></vehicle>
    <vehicle id="45" depart="225.00"><route edges="-503983514 503983514 40149625#0 40149625#1 37248169#0 37248169#1 37248169#2 51997212 50220421 "></route></vehicle>
    <vehicle id="46" depart="230.00"><route edges="202126235#0 -171895303#2 -171895303#1 -171895303#0 -477004463 7763531#0 7763531#1 7763531#2 7763531#3 7763531#4 221065661#6 221065662#0 221065662#1 7763600#0 7763600#1 "></route></vehicle>
    <vehicle id="47" depart="235.00"><route edges="171895303#1 -171895303#1 -171895303#0 -477004463 7763531#0 7763531#1 7763531#2 7763531#3 7763531#4 -7763531#4 -7763531#3 "></route></vehicle>
    <vehicle id="48" depart="240.00"><route edges="477004463 -477004463 7763531#0 7763531#1 7763531#2 7763531#3 7763531#4 221065661#6 221065662#0 221065662#1 7763600#0 "></route></vehicle>
    <vehicle id="50" depart="250.00"><route edges="7763600#0 7763600#1 7763600#2 7763600#3 7763600#4 7763600#5 -7763531#5 7763531#5 "></route></vehicle>
    <vehicle id="51" depart="255.00"><route edges="35778692#3 183319700#0 183319700#1 183319700#2 7763600#5 -7763531#5 -7763531#4 7763531#4 "></route></vehicle>
    <vehicle id="52" depart="260.00"><route edges="221065661#4 221065661#5 -7763531#4 -7763531#3 -7763531#2 -7763531#1 -7763531#0 7763531#0 "></route></vehicle>
    <vehicle id="53" depart="265.00"><route edges="35778692#0 -35778692#0 570518215#0 570518215#1 7763600#0 7763600#1 7763600#2 7763600#3 7763600#4 7763600#5 -7763531#5 -7763531#4 7763531#4 "></route></vehicle>
    <vehicle id="54" depart="270.00"><route edges="221065661#1 221065661#2 221065661#3 221065661#4 221065661#5 221065661#6 221065662#0 221065662#1 37336876#0 "></route></vehicle>
    <vehicle id="57" depart="285.00"><route edges="7763531#5 -7763531#5 -7763531#4 -7763531#3 -7763531#2 -7763531#1 -7763531#0 477004463 171895303#0 "></route></vehicle>
    <vehicle id="58" depart="290.00"><route edges="570518215#0 570518215#1 37336876#0 37336876#1 37248039 7765509#0 7765509#1 37248071#0 37248071#1 -40149625#1 -40149625#0 -503983514 503983514 "></route></vehicle>
    <vehicle id="60" depart="300.00"><route edges="477004462 7763531#0 73342459 "></route></vehicle>
    <vehicle id="61" depart="305.00"><route edges="477004463 -477004463 7763531#0 7763531#1 7763531#2 7763531#3 7763531#4 221065661#6 221065662#0 221065662#1 -104708393 37248169#0 "></route></vehicle>
    <vehicle id="62" depart="310.00"><route edges="7763600#0 7763600#1 7763600#2 7763600#3 7763600#4 7763600#5 -7763531#5 -7763531#4 -7763531#3 -7763531#2 -7763531#1 -7763531#0 "></route></vehicle>
    <vehicle id="63" depart="315.00"><route edges="183319700#0 183319700#1 183319700#2 7763600#5 -7763531#5 221065661#6 221065662#0 221065662#1 37336876#0 37336876#1 202126235#0 "></route></vehicle>
    <vehicle id="65" depart="325.00"><route edges="7763531#1 -7763531#1 -7763531#0 477004463 171895303#0 171895303#1 171895303#2 202126235#1 "></route></vehicle>
    <vehicle id="67" depart="335.00"><route edges="7765206 37336756 503968146 503983514 40149625#0 40149625#1 104708393 7763600#0 7763600#1 7763600#2 7763600#3 7763600#4 7763600#5 -7763531#5 -7763531#4 -7763531#3 -7763531#2 -7763531#1 73342459 "></route></vehicle>
    <vehicle id="68" depart="340.00"><route edges="-171895303#2 -171895303#1 -171895303#0 -477004463 7763531#0 7763531#1 7763531#2 7763531#3 7763531#4 221065661#6 221065662#0 "></route></vehicle>
    <vehicle id="69" depart="345.00"><route edges="289026882 40149625#0 40149625#1 104708393 7763600#0 7763600#1 7763600#2 7763600#3 7763600#4 7763600#5 47237824#0 47237824#1 "></route></vehicle>
    <vehicle id="71" depart="355.00"><route edges="38188264 37336844 7765206 37336756 503968146 503983514 40149625#0 40149625#1 104708393 7763600#0 7763600#1 7763600#2 7763600#3 7763600#4 7763600#5 -7763531#5 221065661#6 221065662#0 "></route></vehicle>
    <vehicle id="73" depart="365.00"><route edges="7763600#4 7763600#5 -7763531#5 221065661#6 221065662#0 221065662#1 7763600#0 7763600#1 7763600#2 "></route></vehicle>
    <vehicle id="74" depart="370.00"><route edges="221065661#2 221065661#3 221065661#4 221065661#5 -7763531#4 -7763531#3 "></route></vehicle>
    <vehicle id="75" depart="375.00"><route edges="289026882 40149625#0 40149625#1 104708393 7763600#0 7763600#1 7763600#2 7763600#3 7763600#4 7763600#5 -7763531#5 -7763531#4 -7763531#3 -7763531#2 -7763531#1 -7763531#0 "></route></vehicle>
    <vehicle id="76" depart="380.00"><route edges="37336844 7765206 37336756 503968146 503983514 40149625#0 40149625#1 104708393 7763600#0 7763600#1 7763600#2 7763600#3 7763600#4 7763600#5 -7763531#5 221065661#6 221065662#0 221065662#1 37336876#0 37336876#1 37248039 7765509#0 7765509#1 "></route></vehicle>
    <vehicle id="77" depart="385.00"><route edges="221065661#5 "></route></vehicle>
    <vehicle id="78" depart="390.00"><route edges="7763600#2 7763600#3 7763600#4 7763600#5 -7763531#5 221065661#6 221065662#0 221065662#1 37336876#0 "></route></vehicle>
    <vehicle id="79" depart="395.00"><route edges="50220421 40874898 7765206 37336756 503968146 503983514 "></route></vehicle>
    <vehicle id="81" depart="405.00"><route edges="477004463 -477004463 7763531#0 7763531#1 7763531#2 7763531#3 7763531#4 221065661#6 221065662#0 221065662#1 7763600#0 7763600#1 7763600#2 7763600#3 7763600#4 "></route></vehicle>
    <vehicle id="82" depart="410.00"><route edges="7763600#1 7763600#2 7763600#3 7763600#4 7763600#5 -7763531#5 221065661#6 221065662#0 221065662#1 37336876#0 37336876#1 202126235#0 "></route></vehicle>
    <vehicle id="84" depart="420.00"><route edges="7763600#0 7763600#1 7763600#2 7763600#3 7763600#4 7763600#5 -7763531#5 -7763531#4 "></route></vehicle>
    <vehicle id="85" depart="425.00"><route edges="-7763531#5 221065661#6 221065662#0 221065662#1 37336876#0 37336876#1 37248039 7765509#0 7765509#1 "></route></vehicle>
    <vehicle id="86" depart="430.00"><route edges="-35778692#3 -35778692#2 -35778692#1 -35778692#0 570518215#0 570518215#1 37336876#0 37336876#1 202126235#0 171895303#3 171895303#4 "></route></vehicle>
    <vehicle id="87" depart="435.00"><route edges="171895303#3 -171895303#3 -171895303#2 -171895303#1 -171895303#0 -477004463 7763531#0 7763531#1 7763531#2 7763531#3 7763531#4 221065661#6 221065662#0 221065662#1 37336876#0 37336876#1 202126235#0 "></route></vehicle>
    <vehicle id="88" depart="440.00"><route edges="37248071#0 37248071#1 37248169#0 37248169#1 37248169#2 "></route></vehicle>
    <vehicle id="89" depart="445.00"><route edges="40149625#1 104708393 7763600#0 7763600#1 7763600#2 7763600#3 7763600#4 7763600#5 -7763531#5 -7763531#4 -7763531#3 -7763531#2 -7763531#1 -7763531#0 477004463 171895303#0 171895303#1 171895303#2 171895303#3 "></route></vehicle>
    <vehicle id="90" depart="450.00"><route edges="7763531#0 7763531#1 7763531#2 7763531#3 7763531#4 221065661#6 221065662#0 221065662#1 7763600#0 7763600#1 "></route></vehicle>
    <vehicle id="92" depart="460.00"><route edges="-503983514 503983514 40149625#0 40149625#1 37248169#0 37248169#1 37248169#2 51997212 50220421 "></route></vehicle>
    <vehicle id="93" depart="465.00"><route edges="37248169#1 37248169#2 51997212 50220421 40874898 7765206 37336756 503968146 503983514 40149625#0 40149625#1 104708393 7763600#0 7763600#1 7763600#2 7763600#3 7763600#4 7763600#5 -7763531#5 -7763531#4 -7763531#3 -7763531#2 -7763531#1 -7763531#0 477004463 171895303#0 171895303#1 171895303#2 171895303#3 "></route></vehicle>
    <vehicle id="94" depart="470.00"><route edges="-35778692#2 -35778692#1 -35778692#0 570518215#0 570518215#1 37336876#0 37336876#1 202126235#0 -171895303#2 "></route></vehicle>
    <vehicle id="95" depart="475.00"><route edges="7763600#1 7763600#2 7763600#3 7763600#4 7763600#5 -7763531#5 -7763531#4 -7763531#3 -7763531#2 -7763531#1 -7763531#0 477004463 171895303#0 171895303#1 171895303#2 -171895303#2 "></route></vehicle>
    <vehicle id="96" depart="480.00"><route edges="39272721 183319700#0 183319700#1 183319700#2 7763600#5 -7763531#5 -7763531#4 -7763531#3 -7763531#2 -7763531#1 7763531#1 "></route></vehicle>
    <vehicle id="97" depart="485.00"><route edges="503968146 503983514 40149625#0 40149625#1 104708393 7763600#0 7763600#1 "></route></vehicle>
    <vehicle id="98" depart="490.00"><route edges="221065661#5 -7763531#4 -7763531#3 -7763531#2 -7763531#1 -7763531#0 477004463 171895303#0 171895303#1 171895303#2 171895303#3 171895303#4 "></route></vehicle>
    <vehicle id="99" depart="495.00"><route edges="39272721 183319700#0 183319700#1 183319700#2 7763600#5 -7763531#5 -7763531#4 -7763531#3 -7763531#2 -7763531#1 -7763531#0 477004463 171895303#0 171895303#1 171895303#2 171895303#3 171895303#4 "></route></vehicle>
    <vehicle id="100" depart="500.00"><route edges="7763531#0 -7763531#0 477004463 "></route></vehicle>
    <vehicle id="102" depart="510.00"><route edges="7763531#5 -7763531#5 221065661#6 221065662#0 221065662#1 -104708393 -40149625#1 -40149625#0 -503983514 503983514 "></route></vehicle>
    <vehicle id="105" depart="525.00"><route edges="-171895303#1 -171895303#0 -477004463 7763531#0 7763531#1 7763531#2 7763531#3 7763531#4 221065661#6 221065662#0 221065662#1 "></route></vehicle>
    <vehicle id="106" depart="530.00"><route edges="221065661#5 221065661#6 221065662#0 221065662#1 -104708393 37248169#0 37248169#1 37248169#2 51997212 "></route></vehicle>
    <vehicle id="107" depart="535.00"><route edges="40874898 7765206 37336756 503968146 503983514 40149625#0 40149625#1 37248169#0 37248169#1 37248169#2 51997212 "></route></vehicle>
    <vehicle id="108" depart="540.00"><route edges="37248071#1 104708393 "></route></vehicle>
    <vehicle id="109" depart="545.00"><route edges="221065661#3 221065661#4 221065661#5 "></route></vehicle>
    <vehicle id="110" depart="550.00"><route edges="289026882 40149625#0 40149625#1 37248169#0 37248169#1 37248169#2 51997212 50220421 40874898 7765206 37336756 503968146 "></route></vehicle>
    <vehicle id="111" depart="555.00"><route edges="-171895303#3 -171895303#2 -171895303#1 -171895303#0 -477004463 7763531#0 7763531#1 7763531#2 "></route></vehicle>
    <vehicle id="112" depart="560.00"><route edges="183319700#1 183319700#2 7763600#5 -7763531#5 221065661#6 221065662#0 221065662#1 7763600#0 7763600#1 7763600#2 "></route></vehicle>
    <vehicle id="113" depart="565.00"><route edges="7763531#1 -7763531#1 -7763531#0 477004463 171895303#0 -171895303#0 "></route></vehicle>
    <vehicle id="114" depart="570.00"><route edges="171895303#0 -171895303#0 -477004463 7763531#0 7763531#1 7763531#2 "></route></vehicle>
    <vehicle id="115" depart="575.00"><route edges="221065661#3 221065661#4 221065661#5 221065661#6 221065662#0 "></route></vehicle>
    <vehicle id="116" depart="580.00"><route edges="35778692#3 183319700#0 183319700#1 183319700#2 7763600#5 -7763531#5 -7763531#4 -7763531#3 -7763531#2 -7763531#1 -7763531#0 -477004462 "></route></vehicle>
    <vehicle id="117" depart="585.00"><route edges="221065661#2 221065661#3 221065661#4 221065661#5 -7763531#4 -7763531#3 -7763531#2 -7763531#1 73342459 "></route></vehicle>
    <vehicle id="119" depart="595.00"><route edges="39272934 570518215#0 570518215#1 7763600#0 7763600#1 7763600#2 7763600#3 7763600#4 7763600#5 -7763531#5 221065661#6 221065662#0 221065662#1 -104708393 "></route></vehicle>
    <vehicle id="120" depart="600.00"><route edges="7763600#3 7763600#4 7763600#5 -7763531#5 221065661#6 "></route></vehicle>
    <vehicle id="121" depart="605.00"><route edges="-40149625#0 40149625#0 40149625#1 104708393 7763600#0 7763600#1 7763600#2 "></route></vehicle>
    <vehicle id="122" depart="610.00"><route edges="37336876#0 "></route></vehicle>
    <vehicle id="123" depart="615.00"><route edges="289026882 40149625#0 40149625#1 104708393 7763600#0 7763600#1 7763600#2 7763600#3 7763600#4 7763600#5 -7763531#5 -7763531#4 -7763531#3 -7763531#2 "></route></vehicle>
    <vehicle id="124" depart="620.00"><route edges="221065661#5 221065661#6 221065662#0 221065662#1 -104708393 -40149625#1 "></route></vehicle>
    <vehicle id="125" depart="625.00"><route edges="39272721 183319700#0 183319700#1 183319700#2 7763600#5 -7763531#5 221065661#6 221065662#0 221065662#1 -104708393 37248169#0 37248169#1 37248169#2 51997212 50220421 40874898 7765206 "></route></vehicle>
    <vehicle id="126" depart="630.00"><route edges="37336876#0 "></route></vehicle>
    <vehicle id="127" depart="635.00"><route edges="37336844 7765206 37336756 503968146 503983514 40149625#0 40149625#1 104708393 7763600#0 7763600#1 7763600#2 7763600#3 7763600#4 7763600#5 -7763531#5 221065661#6 221065662#0 221065662#1 37336876#0 37336876#1 37248039 "></route></vehicle>
    <vehicle id="128" depart="640.00"><route edges="221065662#1 7763600#0 7763600#1 7763600#2 7763600#3 7763600#4 7763600#5 -7763531#5 221065661#6 "></route></vehicle>
    <vehicle id="129" depart="645.00"><route edges="7763531#0 -7763531#0 477004463 171895303#0 171895303#1 171895303#2 171895303#3 -171895303#3 "></route></vehicle>
    <vehicle id="132" depart="660.00"><route edges="289026882 40149625#0 40149625#1 104708393 7763600#0 7763600#1 7763600#2 7763600#3 7763600#4 7763600#5 -7763531#5 221065661#6 221065662#0 221065662#1 "></route></vehicle>
    <vehicle id="133" depart="665.00"><route edges="37336756 503968146 503983514 40149625#0 40149625#1 37248169#0 37248169#1 37248169#2 51997212 "></route></vehicle>
    <vehicle id="134" depart="670.00"><route edges="221065661#6 221065662#0 221065662#1 37336876#0 37336876#1 202126235#0 "></route></vehicle>
    <vehicle id="136" depart="680.00"><route edges="221065661#2 221065661#3 221065661#4 221065661#5 -7763531#4 -7763531#3 -7763531#2 "></route></vehicle>
    <vehicle id="138" depart="690.00"><route edges="7763531#3 7763531#4 -7763531#4 -7763531#3 -7763531#2 -7763531#1 -7763531#0 -477004462 "></route></vehicle>
    <vehicle id="139" depart="695.00"><route edges="38188264 37336844 7765206 37336756 503968146 503983514 40149625#0 "></route></vehicle>
    <vehicle id="140" depart="700.00"><route edges="183319700#1 183319700#2 7763600#5 -7763531#5 -7763531#4 -7763531#3 -7763531#2 -7763531#1 -7763531#0 477004463 171895303#0 171895303#1 171895303#2 -171895303#2 "></route></vehicle>
    <vehicle id="141" depart="705.00"><route edges="7763531#0 7763531#1 7763531#2 7763531#3 7763531#4 7763531#5 -7763531#5 "></route></vehicle>
    <vehicle id="142" depart="710.00"><route edges="-40149625#1 40149625#1 104708393 7763600#0 7763600#1 7763600#2 "></route></vehicle>
    <vehicle id="143" depart="715.00"><route edges="37336876#1 202126235#0 -171895303#2 -171895303#1 -171895303#0 -477004463 7763531#0 7763531#1 -7763531#1 "></route></vehicle>
    <vehicle id="144" depart="720.00"><route edges="37336876#1 202126235#0 "></route></vehicle>
    <vehicle id="145" depart="725.00"><route edges="221065661#1 221065661#2 221065661#3 221065661#4 221065661#5 -7763531#4 -7763531#3 -7763531#2 -7763531#1 -7763531#0 7763531#0 "></route></vehicle>
    <vehicle id="147" depart="735.00"><route edges="7763600#3 7763600#4 7763600#5 -7763531#5 -7763531#4 -7763531#3 -7763531#2 -7763531#1 -7763531#0 7763531#0 "></route></vehicle>
    <vehicle id="148" depart="740.00"><route edges="-7763531#0 7763531#0 7763531#1 7763531#2 7763531#3 7763531#4 221065661#6 221065662#0 221065662#1 -104708393 37248169#0 37248169#1 37248169#2 37248169#3 "></route></vehicle>
    <vehicle id="149" depart="745.00"><route edges="183319700#0 183319700#1 183319700#2 7763600#5 -7763531#5 -7763531#4 -7763531#3 -7763531#2 -7763531#1 -7763531#0 477004463 171895303#0 "></route></vehicle>
    <vehicle id="150" depart="750.00"><route edges="40149625#0 40149625#1 104708393 7763600#0 7763600#1 7763600#2 7763600#3 7763600#4 "></route></vehicle>
    <vehicle id="152" depart="760.00"><route edges="-7763531#0 477004463 171895303#0 171895303#1 171895303#2 171895303#3 "></route></vehicle>
    <vehicle id="153" depart="765.00"><route edges="-35778692#2 -35778692#1 -35778692#0 570518215#0 570518215#1 7763600#0 7763600#1 7763600#2 7763600#3 7763600#4 7763600#5 47237824#0 "></route></vehicle>
    <vehicle id="154" depart="770.00"><route edges="171895303#0 -171895303#0 -477004463 7763531#0 7763531#1 7763531#2 7763531#3 7763531#4 221065661#6 221065662#0 221065662#1 -104708393 37248169#0 "></route></vehicle>
    <vehicle id="155" depart="775.00"><route edges="7763531#2 7763531#3 7763531#4 221065661#6 221065662#0 221065662#1 -104708393 37248169#0 37248169#1 37248169#2 51997212 50220421 40874898 "></route></vehicle>
    <vehicle id="156" depart="780.00"><route edges="-73342459 -7763531#0 477004463 171895303#0 171895303#1 171895303#2 -171895303#2 "></route></vehicle>
    <vehicle id="157" depart="785.00"><route edges="38188264 37336844 7765206 37336756 503968146 503983514 -289026882 "></route></vehicle>
    <vehicle id="158" depart="790.00"><route edges="37248169#2 51997212 50220421 40874898 7765206 37336756 503968146 503983514 40149625#0 40149625#1 104708393 7763600#0 7763600#1 7763600#2 7763600#3 7763600#4 7763600#5 -7763531#5 -7763531#4 -7763531#3 -7763531#2 -7763531#1 -7763531#0 477004463 171895303#0 171895303#1 171895303#2 171895303#3 171895303#4 "></route></vehicle>
    <vehicle id="159" depart="795.00"><route edges="37248071#0 37248071#1 37248169#0 37248169#1 37248169#2 "></route></vehicle>
    <vehicle id="161" depart="805.00"><route edges="35778692#3 183319700#0 183319700#1 183319700#2 7763600#5 -7763531#5 -7763531#4 -7763531#3 -7763531#2 -7763531#1 -7763531#0 477004463 171895303#0 -171895303#0 "></route></vehicle>
    <vehicle id="162" depart="810.00"><route edges="35778692#0 -35778692#0 570518215#0 570518215#1 7763600#0 7763600#1 7763600#2 7763600#3 7763600#4 7763600#5 47237824#0 47237824#1 "></route></vehicle>
    <vehicle id="163" depart="815.00"><route edges="39272934 296820174#0 296820174#1 -40149625#1 -40149625#0 -503983514 503983514 "></route></vehicle>
    <vehicle id="166" depart="830.00"><route edges="477004462 7763531#0 7763531#1 7763531#2 7763531#3 7763531#4 221065661#6 221065662#0 221065662#1 7763600#0 7763600#1 7763600#2 "></route></vehicle>
    <vehicle id="167" depart="835.00"><route edges="37336876#0 37336876#1 37248039 7765509#0 7765509#1 37248071#0 37248071#1 37248169#0 37248169#1 37248169#2 51997212 "></route></vehicle>
    <vehicle id="169" depart="845.00"><route edges="-7763531#0 7763531#0 7763531#1 7763531#2 7763531#3 7763531#4 221065661#6 221065662#0 221065662#1 7763600#0 7763600#1 7763600#2 7763600#3 7763600#4 "></route></vehicle>
    <vehicle id="170" depart="850.00"><route edges="221065661#5 221065661#6 221065662#0 221065662#1 -104708393 -40149625#1 40149625#1 "></route></vehicle>
    <vehicle id="171" depart="855.00"><route edges="37248071#1 104708393 7763600#0 7763600#1 7763600#2 7763600#3 7763600#4 7763600#5 -7763531#5 -7763531#4 -7763531#3 -7763531#2 -7763531#1 73342459 "></route></vehicle>
    <vehicle id="172" depart="860.00"><route edges="7763600#1 7763600#2 7763600#3 7763600#4 7763600#5 -7763531#5 -7763531#4 -7763531#3 -7763531#2 -7763531#1 -7763531#0 -477004462 "></route></vehicle>
    <vehicle id="173" depart="865.00"><route edges="7765509#0 7765509#1 37248071#0 37248071#1 104708393 7763600#0 7763600#1 7763600#2 7763600#3 7763600#4 7763600#5 -7763531#5 221065661#6 221065662#0 221065662#1 "></route></vehicle>
    <vehicle id="176" depart="880.00"><route edges="39272721 183319700#0 183319700#1 183319700#2 7763600#5 -7763531#5 221065661#6 221065662#0 221065662#1 -104708393 37248169#0 37248169#1 37248169#2 51997212 "></route></vehicle>
    <vehicle id="178" depart="890.00"><route edges="37336876#0 37336876#1 37248039 7765509#0 7765509#1 37248071#0 37248071#1 104708393 7763600#0 "></route></vehicle>
    <vehicle id="179" depart="895.00"><route edges="39272934 570518215#0 570518215#1 "></route></vehicle>
    <vehicle id="183" depart="915.00"><route edges="221065661#0 221065661#1 221065661#2 221065661#3 221065661#4 221065661#5 -7763531#4 -7763531#3 -7763531#2 -7763531#1 -7763531#0 477004463 -477004463 "></route></vehicle>
    <vehicle id="186" depart="930.00"><route edges="477004463 -477004463 -477004462 "></route></vehicle>
    <vehicle id="187" depart="935.00"><route edges="-477004463 7763531#0 7763531#1 7763531#2 7763531#3 7763531#4 221065661#6 221065662#0 221065662#1 -104708393 37248169#0 37248169#1 37248169#2 37248169#3 "></route></vehicle>
    <vehicle id="188" depart="940.00"><route edges="503968146 503983514 40149625#0 40149625#1 104708393 7763600#0 7763600#1 7763600#2 "></route></vehicle>
    <vehicle id="189" depart="945.00"><route edges="40149625#0 40149625#1 104708393 7763600#0 7763600#1 7763600#2 7763600#3 7763600#4 7763600#5 -7763531#5 -7763531#4 -7763531#3 -7763531#2 -7763531#1 7763531#1 "></route></vehicle>
    <vehicle id="190" depart="950.00"><route edges="-477004463 7763531#0 7763531#1 7763531#2 7763531#3 7763531#4 7763531#5 "></route></vehicle>
    <vehicle id="191" depart="955.00"><route edges="51997212 50220421 40874898 7765206 37336756 503968146 503983514 40149625#0 40149625#1 104708393 7763600#0 7763600#1 7763600#2 7763600#3 7763600#4 7763600#5 -7763531#5 -7763531#4 -7763531#3 -7763531#2 -7763531#1 -7763531#0 477004463 171895303#0 171895303#1 "></route></vehicle>
    <vehicle id="195" depart="975.00"><route edges="289026882 40149625#0 40149625#1 104708393 7763600#0 7763600#1 7763600#2 7763600#3 7763600#4 7763600#5 47237824#0 "></route></vehicle>
    <vehicle id="196" depart="980.00"><route edges="-171895303#4 -171895303#3 -171895303#2 -171895303#1 -171895303#0 -477004463 7763531#0 7763531#1 7763531#2 7763531#3 7763531#4 "></route></vehicle>
    <vehicle id="197" depart="985.00"><route edges="37336876#1 37248039 7765509#0 7765509#1 37248071#0 37248071#1 104708393 7763600#0 7763600#1 7763600#2 7763600#3 "></route></vehicle>
    <vehicle id="199" depart="995.00"><route edges="-35778692#3 -35778692#2 -35778692#1 -35778692#0 "></route></vehicle>
    <vehicle id="200" depart="1000.00"><route edges="183319700#1 183319700#2 7763600#5 -7763531#5 -7763531#4 -7763531#3 -7763531#2 -7763531#1 -7763531#0 477004463 171895303#0 171895303#1 -171895303#1 "></route></vehicle>
    <vehicle id="201" depart="1005.00"><route edges="37248071#0 "></route></vehicle>
    <vehicle id="202" depart="1010.00"><route edges="171895303#0 "></route></vehicle>
    <vehicle id="203" depart="1015.00"><route edges="40149625#0 40149625#1 104708393 7763600#0 7763600#1 7763600#2 7763600#3 7763600#4 7763600#5 -7763531#5 221065661#6 221065662#0 221065662#1 -104708393 "></route></vehicle>
    <vehicle id="206" depart="1030.00"><route edges="37248169#1 37248169#2 51997212 50220421 40874898 7765206 37336756 503968146 503983514 40149625#0 40149625#1 104708393 7763600#0 7763600#1 7763600#2 7763600#3 7763600#4 7763600#5 -7763531#5 -7763531#4 -7763531#3 -7763531#2 -7763531#1 "></route></vehicle>
    <vehicle id="207" depart="1035.00"><route edges="7763531#3 7763531#4 221065661#6 221065662#0 221065662#1 -104708393 37248169#0 37248169#1 37248169#2 51997212 "></route></vehicle>
    <vehicle id="209" depart="1045.00"><route edges="296820174#1 -40149625#1 -40149625#0 -503983514 503983514 "></route></vehicle>
    <vehicle id="211" depart="1055.00"><route edges="40149625#0 40149625#1 104708393 7763600#0 7763600#1 7763600#2 7763600#3 7763600#4 7763600#5 -7763531#5 -7763531#4 -7763531#3 "></route></vehicle>
    <vehicle id="212" depart="1060.00"><route edges="221065661#3 221065661#4 221065661#5 221065661#6 221065662#0 221065662#1 37336876#0 37336876#1 202126235#0 "></route></vehicle>